 
data_2
 
_audit_creation_method            'SHELXL-2018/3'
_shelx_SHELXL_version_number      '2018/3'
_chemical_name_systematic         ?
_chemical_name_common             ?
_chemical_melting_point           ?
_chemical_formula_moiety          ?
_chemical_formula_sum
 'O1.85 Si0.92' 
_chemical_formula_weight          55.46

loop_
 _atom_type_symbol
 _atom_type_description
 _atom_type_scat_dispersion_real
 _atom_type_scat_dispersion_imag
 _atom_type_scat_source
 'O'  'O'   0.0000   0.0000
 'International Tables Vol C Tables 4.2.6.8 and 6.1.1.4'
 'Si'  'Si'   0.0000   0.0000
 'International Tables Vol C Tables 4.2.6.8 and 6.1.1.4'
 
_space_group_crystal_system       cubic
_space_group_IT_number            221
_space_group_name_H-M_alt         'P m -3 m'
_space_group_name_Hall            '-P 4 2 3'
 
_shelx_space_group_comment
;
The symmetry employed for this shelxl refinement is uniquely defined
by the following loop, which should always be used as a source of
symmetry information in preference to the above space-group names.
They are only intended as comments.
;
 
loop_
 _space_group_symop_operation_xyz
 'x, y, z'
 '-x, -y, z'
 '-x, y, -z'
 'x, -y, -z'
 'z, x, y'
 'z, -x, -y'
 '-z, -x, y'
 '-z, x, -y'
 'y, z, x'
 '-y, z, -x'
 'y, -z, -x'
 '-y, -z, x'
 'y, x, -z'
 '-y, -x, -z'
 'y, -x, z'
 '-y, x, z'
 'x, z, -y'
 '-x, z, y'
 '-x, -z, -y'
 'x, -z, y'
 'z, y, -x'
 'z, -y, x'
 '-z, y, x'
 '-z, -y, -x'
 '-x, -y, -z'
 'x, y, -z'
 'x, -y, z'
 '-x, y, z'
 '-z, -x, -y'
 '-z, x, y'
 'z, x, -y'
 'z, -x, y'
 '-y, -z, -x'
 'y, -z, x'
 '-y, z, x'
 'y, z, -x'
 '-y, -x, z'
 'y, x, z'
 '-y, x, -z'
 'y, -x, -z'
 '-x, -z, y'
 'x, -z, -y'
 'x, z, y'
 '-x, z, -y'
 '-z, -y, x'
 '-z, y, -x'
 'z, -y, -x'
 'z, y, x'
 
_cell_length_a                    11.9000(13)
_cell_length_b                    11.9000(13)
_cell_length_c                    11.9000(13)
_cell_angle_alpha                 90
_cell_angle_beta                  90
_cell_angle_gamma                 90
_cell_volume                      1685.2(6)
_cell_formula_units_Z             26
_cell_measurement_temperature     293(2)
_cell_measurement_reflns_used     ?
_cell_measurement_theta_min       ?
_cell_measurement_theta_max       ?
 
_exptl_crystal_description        ?
_exptl_crystal_colour             ?
_exptl_crystal_density_meas       ?
_exptl_crystal_density_method     ?
_exptl_crystal_density_diffrn     1.421          
_exptl_crystal_F_000              235
_exptl_transmission_factor_min    ?
_exptl_transmission_factor_max    ?
_exptl_crystal_size_max           ?
_exptl_crystal_size_mid           ?
_exptl_crystal_size_min           ?
_exptl_absorpt_coefficient_mu     0.000
_shelx_estimated_absorpt_T_min    ?
_shelx_estimated_absorpt_T_max    ?
_exptl_absorpt_correction_type    ?
_exptl_absorpt_correction_T_min   ?
_exptl_absorpt_correction_T_max   ?
_exptl_absorpt_process_details    ?
_exptl_absorpt_special_details    ?
_diffrn_ambient_temperature       293(2)
_diffrn_radiation_wavelength      0.01968
_diffrn_radiation_type            ?
_diffrn_source                    ?
_diffrn_measurement_device_type   ?
_diffrn_measurement_method        ?
_diffrn_detector_area_resol_mean  ?
_diffrn_reflns_number             3892
_diffrn_reflns_av_unetI/netI      0.0265
_diffrn_reflns_av_R_equivalents   0.0489
_diffrn_reflns_limit_h_min        -19
_diffrn_reflns_limit_h_max        19
_diffrn_reflns_limit_k_min        -19
_diffrn_reflns_limit_k_max        19
_diffrn_reflns_limit_l_min        -19
_diffrn_reflns_limit_l_max        19
_diffrn_reflns_theta_min          0.116
_diffrn_reflns_theta_max          0.939
_diffrn_reflns_theta_full         0.677
_diffrn_measured_fraction_theta_max   0.891
_diffrn_measured_fraction_theta_full  0.786
_diffrn_reflns_Laue_measured_fraction_max    0.891
_diffrn_reflns_Laue_measured_fraction_full   0.786
_diffrn_reflns_point_group_measured_fraction_max   0.891
_diffrn_reflns_point_group_measured_fraction_full  0.786
_reflns_number_total              785
_reflns_number_gt                 781
_reflns_threshold_expression      'I > 2\s(I)'
_reflns_Friedel_coverage          0.000
_reflns_Friedel_fraction_max      .
_reflns_Friedel_fraction_full     .
 
_reflns_special_details
;
 Reflections were merged by SHELXL according to the crystal
 class for the calculation of statistics and refinement.
 
 _reflns_Friedel_fraction is defined as the number of unique
 Friedel pairs measured divided by the number that would be
 possible theoretically, ignoring centric projections and
 systematic absences.
;
 
_computing_data_collection        ?
_computing_cell_refinement        ?
_computing_data_reduction         ?
_computing_structure_solution     ?
_computing_structure_refinement 'SHELXL-2018/3 (Sheldrick, 2018)'
_computing_molecular_graphics     ?
_computing_publication_material   ?
_refine_special_details           ?
_refine_ls_structure_factor_coef  Fsqd
_refine_ls_matrix_type            full
_refine_ls_weighting_scheme       calc
_refine_ls_weighting_details
'w=1/[\s^2^(Fo^2^)+(0.2000P)^2^] where P=(Fo^2^+2Fc^2^)/3'
_atom_sites_solution_primary      ?
_atom_sites_solution_secondary    ?
_atom_sites_solution_hydrogens    .
_refine_ls_hydrogen_treatment     undef
_refine_ls_extinction_method      none
_refine_ls_extinction_coef        .
_refine_ls_number_reflns          785
_refine_ls_number_parameters      1
_refine_ls_number_restraints      0
_refine_ls_R_factor_all           0.0431
_refine_ls_R_factor_gt            0.0428
_refine_ls_wR_factor_ref          0.2790
_refine_ls_wR_factor_gt           0.2787
_refine_ls_goodness_of_fit_ref    1.286
_refine_ls_restrained_S_all       1.286
_refine_ls_shift/su_max           0.000
_refine_ls_shift/su_mean          0.000
 
loop_
 _atom_site_label
 _atom_site_type_symbol
 _atom_site_fract_x
 _atom_site_fract_y
 _atom_site_fract_z
 _atom_site_U_iso_or_equiv
 _atom_site_adp_type
 _atom_site_occupancy
 _atom_site_site_symmetry_order  
 _atom_site_calc_flag
 _atom_site_refinement_flags_posn
 _atom_site_refinement_flags_adp
 _atom_site_refinement_flags_occupancy
 _atom_site_disorder_assembly
 _atom_site_disorder_group
Si01 Si 0.869227 0.683510 0.500000 0.00 Uani 1 2 d S T P . .
O002 O 1.000000 0.718913 0.500000 0.0 Uani 1 4 d S T P . .
O003 O 0.795698 0.795698 0.500000 0.0 Uani 1 4 d S T P . .
O004 O 0.842538 0.610109 0.389891 0.0 Uani 1 2 d S T P . .

loop_
 _atom_site_aniso_label
 _atom_site_aniso_U_11
 _atom_site_aniso_U_22
 _atom_site_aniso_U_33
 _atom_site_aniso_U_23
 _atom_site_aniso_U_13
 _atom_site_aniso_U_12
Si01 0.005 0.007 0.010 0.000 0.000 0.001
O002 0.019 0.026 0.027 0.000 0.000 0.000
O003 0.010 0.010 0.032 0.000 0.000 0.005
O004 0.032 0.022 0.022 -0.013 -0.003 0.003
 
_geom_special_details
;
 All esds (except the esd in the dihedral angle between two l.s. planes)
 are estimated using the full covariance matrix.  The cell esds are taken
 into account individually in the estimation of esds in distances, angles
 and torsion angles; correlations between esds in cell parameters are only
 used when they are defined by crystal symmetry.  An approximate (isotropic)
 treatment of cell esds is used for estimating esds involving l.s. planes.
;
 
loop_
 _geom_bond_atom_site_label_1
 _geom_bond_atom_site_label_2
 _geom_bond_distance
 _geom_bond_site_symmetry_2
 _geom_bond_publ_flag
Si01 O003 1.59623(16) . ?
Si01 O004 1.60645(17) 26_556 ?
Si01 O004 1.60646(17) . ?
Si01 O002 1.61221(19) . ?
 
loop_
 _geom_angle_atom_site_label_1
 _geom_angle_atom_site_label_2
 _geom_angle_atom_site_label_3
 _geom_angle
 _geom_angle_site_symmetry_1
 _geom_angle_site_symmetry_3
 _geom_angle_publ_flag
O003 Si01 O004 110.266(1) . 26_556 ?
O003 Si01 O004 110.266(1) . . ?
O004 Si01 O004 109.301(1) 26_556 . ?
O003 Si01 O002 108.1 . . ?
O004 Si01 O002 109.447(1) 26_556 . ?
O004 Si01 O002 109.446(1) . . ?
Si01 O002 Si01 149.7 . 3_756 ?
Si01 O003 Si01 156.481(1) 13_556 . ?
Si01 O004 Si01 148.0 17_556 . ?
 
loop_
 _geom_torsion_atom_site_label_1
 _geom_torsion_atom_site_label_2
 _geom_torsion_atom_site_label_3
 _geom_torsion_atom_site_label_4
 _geom_torsion
 _geom_torsion_site_symmetry_1
 _geom_torsion_site_symmetry_2
 _geom_torsion_site_symmetry_3
 _geom_torsion_site_symmetry_4
 _geom_torsion_publ_flag
O003 Si01 O002 Si01 180.0 . . . 3_756 ?
O004 Si01 O002 Si01 59.880(1) 26_556 . . 3_756 ?
O004 Si01 O002 Si01 -59.9 . . . 3_756 ?
O004 Si01 O003 Si01 -60.4 26_556 . . 13_556 ?
O004 Si01 O003 Si01 60.397(1) . . . 13_556 ?
O002 Si01 O003 Si01 180.0 . . . 13_556 ?
O003 Si01 O004 Si01 177.4 . . . 17_556 ?
O004 Si01 O004 Si01 -61.182(2) 26_556 . . 17_556 ?
O002 Si01 O004 Si01 58.669(1) . . . 17_556 ?
 
_refine_diff_density_max    0.068
_refine_diff_density_min   -0.092
_refine_diff_density_rms    0.009

_shelx_res_file
;
TITL 5.res in Pm-3m
    2.res
    created by SHELXL-2018/3 at 16:03:35 on 20-Feb-2023
REM Old TITL fine in Pm-3m
REM SHELXT solution in Pm-3m: R1 0.229, Rweak 0.108, Alpha 0.102
REM <I/s> 0.000 for 0 systematic absences, Orientation as input
REM Formula found by SHELXT: O2 Si
CELL 0.01968 11.9 11.9 11.9 90 90 90
ZERR 26 0.0013 0.0013 0.0013 0 0 0
LATT 1
SYMM -X,-Y,+Z
SYMM -X,+Y,-Z
SYMM +X,-Y,-Z
SYMM +Z,+X,+Y
SYMM +Z,-X,-Y
SYMM -Z,-X,+Y
SYMM -Z,+X,-Y
SYMM +Y,+Z,+X
SYMM -Y,+Z,-X
SYMM +Y,-Z,-X
SYMM -Y,-Z,+X
SYMM +Y,+X,-Z
SYMM -Y,-X,-Z
SYMM +Y,-X,+Z
SYMM -Y,+X,+Z
SYMM +X,+Z,-Y
SYMM -X,+Z,+Y
SYMM -X,-Z,-Y
SYMM +X,-Z,+Y
SYMM +Z,+Y,-X
SYMM +Z,-Y,+X
SYMM -Z,+Y,+X
SYMM -Z,-Y,-X
SFAC  O 0.455 23.78 0.917 7.622 0.472 2.144 0.138 0.296 0 0 0 0 0.73 15.999
SFAC  SI 2.129 57.775 2.533 16.476 0.835 2.88 0.322 0.386 0 0 0 0 1.11 28.086
UNIT 48 24

L.S. 30
PLAN  1
CONF
LIST 4
ACTA
REM MERG 0
SHEL 20 0.6
MORE -1
fmap 2
REM <olex2.extras>
REM <HklSrc "%.\\merge.hkl">
REM </olex2.extras>

WGHT    0.200000
FVAR       2.73905
SI01  2   10.869227   10.683510   10.500000    10.50000   10.00538   10.00715 =
        10.01021   10.00000   10.00000   10.00082
O002  1   11.000000   10.718913   10.500000    10.25000   10.01914   10.02563 =
        10.02706   10.00000   10.00000   10.00000
O003  1   10.795698   10.795698   10.500000    10.25000   10.01034   10.01034 =
        10.03154   10.00000   10.00000   10.00534
O004  1   10.842538   10.610109   10.389891    10.50000   10.03207   10.02248 =
        10.02248    9.98740    9.99660   10.00340
HKLF 4




REM  5.res in Pm-3m
REM wR2 = 0.2790, GooF = S = 1.286, Restrained GooF = 1.286 for all data
REM R1 = 0.0428 for 781 Fo > 4sig(Fo) and 0.0431 for all 785 data
REM 1 parameters refined using 0 restraints

END

WGHT      0.0216      0.0253

REM Highest difference peak  0.068,  deepest hole -0.092,  1-sigma level  0.009
Q1    1   0.9041  0.6862  0.5000  10.50000  0.05    0.07
;
_shelx_res_checksum   94284

_shelx_hkl_file
;
 -19  -2   1   17.83    1.81
 -19   1   2   13.00    1.51
  -2  19   1   14.45    1.17
  -1 -19  -2   14.34    1.24
  -1  19  -2   10.07    1.23
   1 -19   2   13.90    1.27
   2 -19   1   15.37    1.29
   2  19   1   13.65    1.30
  19   1  -2    9.54    1.39
  19   2  -1   16.41    1.65
  -2 -19   0   14.92    1.38
  -2  19   0   19.00    1.34
   0 -19  -2   15.29    1.24
   0 -19   2   19.73    1.55
  19   0  -2   16.91    1.71
 -19  -2   2    1.75    1.20
 -19   2   2    1.03    1.02
   2 -19  -2    1.09    0.67
   2  19   2    1.88    0.83
  19  -2  -2    1.51    0.97
  19   2  -2    1.52    1.11
 -19   2   3   34.78    2.27
 -19   3   2   40.14    2.42
   2 -19   3   46.52    2.16
   3 -19   2   35.10    1.82
 -19  -2   4   13.97    1.69
 -19   2   4    9.84    1.50
 -19   4   2    5.63    1.23
  -4 -19  -2    7.62    1.21
  -4 -19   2   12.96    1.50
  -4  -2  19    7.84    1.33
  -4   2  19    7.16    1.28
  -4  19  -2    8.68    1.12
  -2 -19   4   13.22    1.31
   2 -19  -4    7.82    0.78
   2 -19   4    9.22    1.23
   4 -19  -2   11.05    0.88
  19   2  -4   10.06    1.58
 -19  -1   0    1.81    1.10
 -19   0   1    2.47    1.13
  -1 -19   0    1.31    0.84
   0 -19   1    2.32    0.92
   0  19  -1    0.70    0.76
  19   0  -1    2.16    1.03
 -19  -1   1    6.79    1.32
   1  19  -1   10.81    1.30
   1  19   1   11.70    1.19
  19  -1  -1    8.82    1.38
 -19  -1   3    4.29    1.22
 -19   1   3    2.17    1.10
  -3 -19   1    2.93    0.92
  -1 -19  -3    3.02    0.81
  -1 -19   3    4.55    1.02
  -1  19  -3    4.66    1.02
  -1  19   3    1.97    0.64
   1 -19  -3    3.44    0.73
   1 -19   3    1.34    0.85
   1  19   3    3.92    0.86
   3 -19  -1    2.28    0.72
   3 -19   1    2.92    0.83
  19  -1  -3    3.12    1.15
 -19  -1   4   16.16    1.80
  -1 -19   4   22.11    1.69
   1 -19  -4   17.40    1.11
   1  19  -4   15.90    1.58
   4 -19  -1   15.57    1.09
   4  -1 -19   15.64    1.67
   4  19  -1   15.56    1.54
 -19   1   5   15.60    1.82
   1 -19   5   20.21    1.63
   5  19  -1   18.71    1.64
  19  -1  -5   19.20    1.87
  -3 -19   0   31.85    1.87
   0  19  -3   38.15    2.05
   0  19   3   31.34    1.61
   3  19   0   39.35    2.14
 -19   0   4    6.42    1.35
  -4 -19   0    7.68    1.24
  -4   0  19    5.80    1.27
  -4  19   0    6.97    0.91
   0 -19  -4    7.03    0.93
   0 -19   4    4.38    1.09
   0  19   4    3.42    0.79
   4   0 -19    9.69    1.49
   4  19   0    5.68    1.10
  19   0  -4    2.44    1.16
  19   4   0    5.11    1.33
 -19   0   5    3.68    1.20
  -5 -19   0    8.33    1.29
   0 -19  -5    4.42    0.81
   0 -19   5    3.69    1.03
   0  19  -5    7.23    1.20
   0  19   5    5.82    0.83
   5   0 -19    5.60    1.22
  19   5   0    4.28    1.21
  -5   2  19    2.57    1.05
  -5  19  -2    3.22    0.88
  -2 -19   5    2.79    0.99
  -2  19  -5    2.64    0.92
  -2  19   5    4.13    0.66
   2 -19  -5    3.13    0.66
   2 -19   5    3.35    0.95
   2   5 -19    0.28    1.20
   2  19   5    0.98    0.75
   5   2 -19    4.34    1.24
   5  19  -2    1.11    0.84
   5  19   2    2.69    1.02
  19  -2  -5    2.39    1.10
  19   2  -5    5.37    1.45
  -3  19   3  213.90    5.20
 -19   3   4   12.69    1.53
  -4 -19   3    7.05    1.32
  -4  19  -3    6.34    1.03
  -3 -19   4    9.92    1.38
  -3  19  -4   12.09    1.27
   3 -19  -4    7.14    0.77
   3  19   4    7.49    1.03
  19  -4  -3    5.92    1.19
  19  -3  -4   11.50    1.44
  19   3  -4    8.32    1.54
  19   4  -3    5.52    1.43
 -19   4   4   22.35    1.81
 -18  -4  -1    3.33    1.34
 -18  -4   1    3.40    1.19
 -18  -1   4    0.57    1.05
  -4   1  18    2.15    0.95
  -1 -18  -4    2.41    0.78
   4  -1 -18    2.56    1.10
   4  18   1    0.51    0.96
  18   4  -1    0.64    1.09
  18   4   1    2.84    1.21
   0 -18  -4   43.67    1.79
  18   4   0   37.56    2.36
 -18   2   4   26.06    2.00
  -4 -18  -2   26.68    1.71
  -4 -18   2   33.52    2.03
   2  18  -4   23.38    1.82
   2  18   4   33.09    1.69
   4 -18  -2   31.94    1.38
   4  18  -2   29.84    1.90
   4  18   2   28.43    1.77
  18   2  -4   28.52    2.12
  18   4  -2   26.43    2.06
 -18  -3   4    7.66    1.47
 -18   4   3    8.13    1.33
  -4   3  18    7.99    1.19
  -3  18  -4    7.96    1.17
   4  -3 -18    8.12    1.29
   4   3 -18    5.78    1.30
  18   4  -3   11.99    1.68
  -5   4  18    2.40    0.91
  -5  18   4    0.44    0.36
  -4  18   5    1.31    0.48
   4 -18  -5    0.95    0.47
   4  -5 -18   -1.02    0.84
   5 -18  -4    0.50    0.41
  18   5  -4    2.12    1.29
 -18  -3  -2    3.23    1.17
  -3  -2  18    2.15    1.08
  -3  18  -2    2.81    0.89
  -2  18  -3    2.15    0.85
  -2  18   3    1.25    0.53
   3 -18  -2    0.71    0.59
   3   2 -18    0.99    1.13
  18  -3  -2    0.95    0.91
 -18  -3  -1   17.65    1.79
  -3 -18  -1   14.21    1.36
  -1  18  -3   15.71    1.45
   1 -18  -3   12.21    1.00
   1  18  -3   16.39    1.53
   3 -18  -1   12.24    0.99
   3 -18   1   14.79    1.20
   3  -1 -18   12.86    1.57
   3  18   1   15.16    1.40
 -18  -3   0   10.87    1.67
  -3  18   0    5.60    0.91
 -18  -3   3   21.94    1.98
 -18   3   3   28.10    1.94
  -3  18  -3   29.54    1.58
   3  18   3   26.07    1.66
  18  -3  -3   29.18    2.00
 -18  -3   6    5.97    1.34
 -18   6   3    3.83    1.08
  -6  -3  18    3.45    1.15
  -6   3  18    5.83    1.15
  -3 -18   6    5.79    1.15
  -3  18  -6    6.31    1.22
  -3  18   6    5.79    0.61
   3  18  -6    8.19    1.37
   3  18   6    4.56    0.83
   6  -3 -18    3.71    1.01
   6  18  -3    4.50    1.10
  18   3  -6    8.75    1.51
  18   6  -3    2.57    1.26
  -7  -3  18    8.74    1.46
  -3  18   7    9.29    0.65
   3 -18   7    4.99    1.14
   3   7 -18    8.26    1.54
  18   7  -3    6.38    1.50
 -18  -2  -1    4.39    1.35
 -18  -1   2    5.82    1.34
 -18   1   2    7.73    1.34
  -2  18  -1    6.51    1.03
  -2  18   1    8.46    0.93
  -1 -18  -2    5.18    0.94
  -1 -18   2    8.03    1.21
  -1  18  -2    9.76    1.13
  -1  18   2    5.49    0.71
   1  18   2    6.06    0.92
   2 -18  -1    8.10    0.95
   2  18   1   10.51    1.17
  18   2  -1    7.66    1.29
 -18  -2   0   19.22    1.77
 -18   0   2   16.01    1.63
   0 -18  -2   13.61    1.13
   0 -18   2   17.49    1.43
   2 -18   0   14.05    1.13
 -18  -2   2    9.31    1.54
  -2 -18  -2   14.10    1.27
  -2  18  -2   14.03    1.26
  18  -2  -2   12.45    1.43
  -6  -2  18    3.08    1.16
  -2 -18   6    2.42    1.03
  -2  18  -6    0.39    0.79
   2  18  -6    1.58    0.97
   6   2 -18    1.23    1.04
   6  18  -2    1.57    1.01
   6  18   2    2.36    0.96
  18   6  -2    1.24    1.04
 -18   2   7    1.73    1.03
  -7 -18  -2    1.22    0.90
  -7 -18   2    2.68    1.05
  -7   2  18    3.76    1.07
  -2  18  -7    1.55    0.89
  -2  18   7    2.29    0.54
   2 -18   7    4.68    0.96
   2   7 -18    3.56    1.23
   2  18  -7    1.57    1.01
   2  18   7    2.78    0.72
   7  -2 -18    2.17    1.05
  18   2  -7    4.55    1.36
  18   7  -2    2.93    1.22
  18   7   2    0.53    1.06
 -18  -2   8    2.83    1.15
 -18   2   8    3.21    1.08
  -8 -18  -2    1.55    0.97
  -8 -18   2    2.06    1.01
  -8  -2  18    4.27    1.15
  -2 -18   8    4.36    1.12
  -2  18  -8    1.94    0.90
   2  18  -8    3.83    1.18
   8  -2 -18    3.60    1.13
   8  18  -2    1.16    0.94
   8  18   2    2.69    1.06
  18  -2  -8    1.00    0.97
  18   2  -8    3.22    1.19
 -18  -1   0    7.03    1.36
 -18   0   1   11.80    1.49
  -1 -18   0    9.45    1.17
  -1  18   0    8.71    1.09
   0  18  -1    7.74    1.10
  18   0  -1    6.97    1.18
 -18  -1   1    8.18    1.40
 -18   1   1    6.10    1.28
   1 -18   1    8.11    1.02
   1  18  -1    6.48    1.22
   1  18   1    6.64    1.05
  18   1  -1    7.09    1.35
 -18  -1   6    5.31    1.34
  -6 -18   1    2.99    1.05
  -1 -18   6    5.35    1.12
  -1  18  -6    2.60    1.06
   1 -18   6    5.12    1.12
   1  18   6    1.89    0.66
   6  -1 -18    2.20    1.04
   6   1 -18    1.36    1.06
   6  18  -1    5.95    1.24
   6  18   1    0.55    0.89
  18   6   1    3.17    1.21
  -7 -18  -1    6.30    1.15
  -7  -1  18    4.49    1.19
  -7   1  18    1.39    1.12
  -1 -18   7    4.68    1.10
  -1  18  -7    2.90    1.03
  -1  18   7    1.88    0.55
   1 -18   7    0.57    0.87
   1   7 -18    3.39    1.27
   1  18  -7    2.98    1.09
   7  -1 -18    6.41    1.36
   7   1 -18    2.15    1.07
   7  18   1    6.18    1.20
  18   7  -1    3.13    1.30
  18   7   1    3.24    1.19
 -18   1   8   13.77    1.61
  -8 -18  -1   17.41    1.66
  -1  18  -8   13.28    1.59
   8  18  -1   14.40    1.60
  18  -1  -8   11.25    1.57
  18   1  -8   11.30    1.59
  18   8   1    8.03    1.77
   0 -18  -5   14.40    1.07
 -18   0   7   39.38    2.54
   0 -18  -7   34.83    1.49
   7  18   0   33.56    2.17
  18   0  -7   31.62    2.33
 -18   0   8    2.10    1.19
  -8 -18   0    0.65    0.93
   0 -18  -8    1.30    0.57
   0 -18   8    2.33    0.98
   8   0 -18    2.49    1.12
  18   8   0    0.86    1.22
 -18   1   5    4.68    1.27
  -5  18  -1    4.78    0.84
   5 -18  -1    7.76    0.80
   5  -1 -18    4.88    1.17
   5   1 -18    6.89    1.31
   5  18  -1    6.01    1.18
  18  -1  -5    6.85    1.35
  18   5  -1    4.59    1.34
 -18   2   5    1.50    1.02
  -5  18  -2    2.23    0.75
  -2 -18   5    2.90    1.03
  -2  -5  18    0.71    1.06
   2  18  -5    1.55    0.87
   5  18   2    2.58    0.98
  18  -2  -5    3.08    1.14
  18   2  -5    1.90    1.14
 -18   3   5   10.40    1.42
  -5  18  -3    6.09    0.96
  -3 -18  -5    6.62    1.02
  -3  -5  18    8.71    1.57
  -3  18  -5    6.23    1.08
  -3  18   5    7.54    0.69
   3  18   5    9.78    1.12
   5   3 -18    5.35    1.34
   5  18   3    5.20    1.10
  18  -5  -3    9.81    1.32
  18  -3  -5   12.31    1.47
  18   5  -3    9.16    1.61
  -4  18   4   54.69    1.78
   4  18  -4   47.15    2.60
 -18   4   6    8.74    1.37
 -18   6   4    7.16    1.15
  -6 -18   4    6.49    1.21
  -6  -4  18    8.38    1.48
  -4 -18  -6    8.32    1.02
  -4 -18   6    9.14    1.47
  -4  18   6    5.24    0.54
   4 -18   6    3.83    0.92
   4   6 -18    4.81    1.41
   4  18  -6    5.89    1.20
   4  18   6    3.67    0.78
   6  -4 -18    2.41    1.01
   6   4 -18    9.69    1.58
   6  18  -4    4.72    1.23
  18  -4  -6    5.34    1.15
  18   4  -6    2.91    1.16
 -18   5   5    3.86    1.09
   5  -5 -18    2.21    1.01
   5  18  -5    3.91    1.24
  18  -5  -5    1.42    0.85
 -18   5   6    5.95    1.22
 -18   6   5    1.39    1.00
  -5 -18  -6    3.56    0.89
  -5  18   6    4.93    0.47
   5   6 -18    2.04    1.30
   5  18   6    2.99    0.88
   6  -5 -18    2.73    1.04
   6  18   5    5.85    0.99
  18  -6  -5    7.27    1.16
  18  -5  -6    3.53    1.04
  18   6  -5    3.62    1.31
 -18   7   4    6.73    1.15
  -7 -18   4    6.53    1.20
  -7  -4  18   11.62    1.76
  -7   4  18   11.28    1.39
  -4 -18  -7    9.65    1.13
  -4 -18   7    8.77    1.46
   4  18  -7    6.97    1.35
   4  18   7    5.96    0.96
   7  -4 -18    6.24    1.19
  18  -7  -4    6.89    1.15
  18   4  -7    7.22    1.45
 -17  -6  -1    2.02    1.23
 -17  -6   1    4.99    1.28
 -17  -1   6    3.81    1.31
  -6 -17   1    6.12    1.29
  -6  -1  17    5.17    1.16
  -1 -17   6    3.27    0.99
  -1  17  -6    5.22    1.17
   1   6 -17    2.04    1.10
   1  17  -6    6.88    1.16
   6  -1 -17    2.92    1.12
   6  17  -1    1.84    1.06
  17   6  -1    6.19    1.23
  17   6   1    2.45    1.18
 -17   0   6   49.29    2.69
  -6 -17   0   43.85    2.35
 -17  -6   2    1.55    1.27
 -17  -2   6    0.61    0.93
  -2  -6  17   -0.38    1.05
   2 -17  -6    1.55    0.41
   2  17  -6    2.04    1.01
   6  -2 -17    1.82    0.93
   6  17  -2    2.28    0.94
  17   6  -2    0.30    0.93
 -17  -6   4   12.79    1.92
 -17  -4   6   19.32    1.99
 -17   6   4   21.69    1.66
  -6 -17   4   18.25    1.59
  -6  -4  17   16.21    1.61
  -4 -17   6   16.85    1.73
   4  17  -6   16.86    1.69
   6   4 -17   18.20    1.77
   6  17  -4   16.10    1.59
   6  17   4   15.99    1.35
  -5 -17  -2    3.82    1.01
  -5  -2  17    2.06    1.10
  -2 -17  -5    3.94    0.87
   2 -17   5    4.84    1.03
   2   5 -17    1.84    1.17
   2  17  -5    4.84    1.04
   5 -17  -2    3.84    0.61
   5   2 -17    3.53    1.20
   5  17  -2    3.17    1.02
   5  17   2    2.53    1.00
  17  -2  -5    1.97    1.05
  17   5  -2    6.45    1.37
 -17   1   5   25.09    1.96
  -1 -17   5   25.32    1.81
   1  17  -5   21.59    1.67
  17   1  -5   29.90    2.19
  17   5   1   21.64    1.94
 -17  -5   0    3.29    1.28
 -17   0   5    9.04    1.48
  -5 -17   0    6.94    1.17
  -5   0  17    7.25    1.31
   0 -17  -5    7.41    0.74
   0  17  -5    6.31    1.21
   5  17   0    5.70    1.17
  17   5   0    3.29    1.35
 -17  -3   5    3.61    1.28
  -5 -17  -3    2.36    0.92
  -5  -3  17    1.31    1.11
  -3 -17   5    3.75    1.15
   5 -17  -3    4.08    0.60
   5   3 -17    2.73    1.05
   5  17  -3    2.50    1.03
   5  17   3    5.35    1.10
  17  -3  -5    5.33    1.18
  17   5  -3    1.00    1.28
 -17   5   5    3.19    1.05
  -5  -5  17    0.87    1.06
  -5   5  17    1.07    0.89
   5   5 -17    1.66    1.13
   5  17   5    0.98    0.76
  17   5  -5    2.85    1.26
 -17   5   6    1.88    1.10
 -17   6   5    2.33    1.02
  -6 -17  -5    0.06    0.81
  -6  -5  17    2.96    1.20
  -5  -6  17    1.76    0.94
   5  -6 -17    2.83    1.01
   5   6 -17    3.32    1.17
   5  17   6    2.77    0.86
   6  -5 -17    1.13    0.84
   6   5 -17    1.16    1.15
  17  -6  -5    3.43    1.05
  17   5  -6    4.26    1.42
  17   6  -5    1.31    1.12
 -17   7   5    5.96    1.01
  -7 -17  -5   11.20    1.31
  -7 -17   5    6.72    1.25
  -7  -5  17    8.71    1.48
  -7   5  17    8.74    1.23
  -5 -17  -7    9.86    1.05
   5  17   7    7.72    1.06
   7  -5 -17    7.50    1.27
   7   5 -17   11.47    1.66
   7  17  -5    6.91    1.33
  17  -7  -5   12.13    1.33
  17  -5  -7    8.94    1.40
  17   5  -7   13.60    1.69
 -17  -1   4   37.31    2.35
 -17   1   4   37.82    2.29
  -4  17   1   41.32    1.66
  -1  17  -4   43.89    2.14
   1  17  -4   40.85    2.13
  17  -1  -4   38.59    2.31
  17   1  -4   45.12    2.53
  17   4   1   35.31    2.25
  -4   0  17   22.03    1.81
   0 -17  -4   23.07    1.34
   4  17   0   26.18    1.73
 -17   2   4    3.22    1.15
  -4 -17  -2    2.13    0.93
  -4  17   2    0.95    0.56
  -2 -17  -4    2.44    0.67
  -2  -4  17    1.36    1.10
   2  17  -4    1.88    0.99
   2  17   4    2.29    0.79
  17   2  -4    3.56    1.19
  17   4  -2    3.82    1.31
 -17  -3   4   17.77    1.81
 -17   3   4   14.19    1.54
 -17   4   3   12.22    1.39
  -4 -17   3   11.75    1.46
  -3 -17   4   11.52    1.46
  -3  -4  17   17.38    1.71
   4  -3 -17   13.71    1.41
   4   3 -17   17.67    1.65
   4  17   3   17.78    1.46
 -17  -4   5   19.23    1.81
 -17   5   4   18.18    1.56
  -5   4  17   24.64    1.78
  -4 -17   5   16.69    1.71
  -4  -5  17   22.69    1.90
   5  17   4   16.90    1.47
 -17  -4   7    0.80    1.16
 -17   7   4    1.38    0.96
  -7 -17   4    0.76    0.97
  -7  -4  17    1.04    1.07
  -7   4  17   -0.08    0.86
  -4 -17   7    3.48    1.05
   4 -17  -7    0.69    0.27
   4   7 -17    0.99    0.97
   7  17   4    3.35    0.98
  17  -7  -4    2.46    0.96
  17   4  -7    3.11    1.07
 -17  -4   8    2.14    1.03
 -17   4   8    1.05    0.87
 -17   8   4    1.13    0.86
  -8 -17   4    3.21    1.06
  -8  -4  17    1.75    1.01
  -4 -17   8    2.26    1.10
  -4  17  -8    0.84    0.84
   4   8 -17    0.61    1.20
   4  17  -8    2.57    1.13
   8   4 -17    2.37    1.11
   8  17  -4    3.61    1.18
  17   4  -8    2.71    1.20
  17   8  -4    1.60    1.07
   4   9 -17   13.31    1.89
   4  17  -9   11.79    1.69
   9  -4 -17   13.17    1.52
   9  17  -4   18.67    1.88
   9  17   4   21.17    1.69
  17  -4  -9   22.21    1.90
  17   4  -9   20.16    1.95
  17   9  -4   17.65    2.00
 -17  -3  -2    9.24    1.38
 -17   2   3    5.92    1.18
  -3  17   2    4.92    0.73
   2   3 -17    7.48    1.39
   2  17   3    5.50    0.98
   3 -17   2    3.71    0.83
   3  -2 -17    4.76    1.10
   3   2 -17    2.46    1.21
  17   2  -3   10.11    1.47
 -17  -3   1   47.10    2.54
 -17   1   3   34.16    2.15
  -3  17   1   44.44    1.77
  -1  17  -3   37.88    1.97
   1 -17  -3   37.29    1.59
   3  -1 -17   43.67    2.31
 -17  -3   0   53.81    2.72
   0 -17  -3   48.86    1.90
   0 -17   3   55.03    2.41
  -3 -17  -3   13.34    1.23
  -3  -3  17   14.39    1.59
  -3  17   3   12.33    0.93
  17  -3  -3   16.01    1.52
 -17   6   3   22.20    1.61
  -6   3  17   16.01    1.54
  -3 -17  -6   16.61    1.28
   6   3 -17   26.15    2.14
  17   3  -6   22.40    2.02
  17   6  -3   18.19    1.84
  -3 -17  -7   55.34    2.08
  -3 -17   7   65.89    3.01
   3  17  -7   53.98    2.72
 -17   3   8    2.56    1.04
  -8 -17   3    3.95    1.20
  -8  -3  17    1.31    1.02
   3   8 -17    0.90    1.06
   3  17  -8    2.00    1.03
   8  17  -3    4.54    1.21
   8  17   3    3.39    1.02
  17  -3  -8    3.10    1.11
 -17  -3   9    2.37    1.20
 -17   3   9    0.47    1.00
  -9 -17   3    2.88    1.18
  -9   3  17    4.53    1.07
  -3  17  -9    1.88    1.03
   3 -17   9    2.40    0.98
   3   9 -17    1.03    1.12
   3  17  -9    2.59    1.15
   9  -3 -17    2.91    1.04
   9   3 -17    5.13    1.33
   9  17   3    3.32    1.10
  17  -3  -9    4.08    1.18
  17   9   3    4.24    1.40
  -2  17   0    3.33    0.78
   0  17  -2    3.39    0.95
  17   2   0    2.62    1.19
 -17   1   2    5.49    1.25
  -2 -17   1    6.24    1.17
   2 -17   1    4.15    0.72
   2  17   1    4.63    0.95
  17   1  -2    5.83    1.23
  17   2  -1    4.60    1.26
 -17   2   2    1.29    1.03
   2 -17   2    4.33    0.95
   2  17   2    1.63    0.86
  17  -2  -2    5.92    1.22
  17   2  -2    5.57    1.25
 -17  -2   7    1.85    1.19
  -7 -17  -2    3.15    1.07
  -7  -2  17    1.71    1.04
  -2 -17  -7    2.28    0.67
   7  17   2    0.41    0.96
  17   7  -2    0.90    1.13
  17   7   2    1.03    1.09
 -17  -2   8    0.68    1.04
  -8 -17   2    3.44    1.08
  -8  -2  17    3.46    1.08
  -8   2  17    2.32    1.03
  -2 -17   8    0.46    0.85
  -2  17  -8    2.18    0.94
   2 -17  -8    1.89    0.46
   2  17  -8    1.16    0.98
   8   2 -17    0.74    0.98
   8  17  -2    3.95    1.20
  17  -2  -8    2.38    1.05
  17   2  -8    0.89    0.99
  17   8   2    2.91    1.15
 -17  -2   9    2.32    1.06
 -17   2   9    0.31    0.90
  -9 -17   2    1.75    1.00
  -9   2  17   -0.14    0.78
   9   2 -17    4.02    1.29
  17  -2  -9    3.06    1.07
  17   2  -9    1.23    1.04
  17   9   2    4.84    1.55
 -17   2  10    2.75    1.02
 -10 -17  -2    3.52    1.15
 -10  -2  17    3.74    1.23
 -10   2  17    1.97    0.98
   2 -17  10    3.81    1.18
   2  17 -10    1.93    1.18
  10  -2 -17    1.52    1.05
  10  17  -2    3.07    1.09
  17  -2 -10    1.44    0.95
  17   2 -10    2.98    1.22
  -1  17  -1   67.39    2.50
   1 -17   1   65.17    2.46
  17  -1  -1   70.36    2.92
 -17  -1   0    2.90    1.13
  -1 -17   0    2.45    0.92
   1 -17   0    1.25    0.74
 -17   1   7   12.52    1.51
  -7 -17   1    8.77    1.40
  -1  17  -7   13.37    1.46
   1  17   7   11.58    0.91
   7  -1 -17    8.05    1.40
   7  17  -1    9.24    1.40
  17   7   1    9.64    1.47
 -17  -1   8    7.47    1.43
  -8 -17  -1    2.63    1.12
  -8 -17   1    6.03    1.25
  -8  -1  17    3.10    1.02
  -8   1  17    4.14    1.07
  -1 -17   8    4.41    1.21
   8   1 -17    4.18    1.17
   8  17  -1    5.12    1.26
  17   1  -8    6.43    1.37
  17   8  -1    3.83    1.33
  17   8   1    2.45    1.22
 -17   1   9   12.94    1.59
  -9 -17  -1   13.45    1.54
  -9 -17   1    6.44    1.29
  -9   1  17   12.60    1.46
  -1 -17   9   13.12    1.55
  -1  17  -9   12.73    1.48
   9   1 -17    7.94    1.48
  17   9  -1   12.29    1.68
 -17  -1  10   15.53    1.78
 -17   1  10   16.18    1.75
 -10   1  17   17.65    1.77
  10   1 -17   16.84    1.84
  10  17  -1   17.74    1.74
  17  -1 -10   14.16    1.63
   0 -17  -7    1.78    0.60
   0 -17   7    2.60    1.07
   0  17  -7    2.61    1.08
   7   0 -17    2.66    1.10
   7  17   0    1.53    0.92
  17   0  -7    1.97    1.04
   0 -17   8   30.60    2.11
  17   0  -8   29.05    2.13
 -17   0   9    1.84    1.00
  -9 -17   0    3.32    1.18
  -9   0  17    0.53    0.89
   0   9 -17    1.18    1.16
   9   0 -17    1.16    0.95
 -10 -17   0   10.08    1.52
 -10   0  17   12.68    1.53
  -4  -4  17    2.46    1.08
  -4  17   4    0.52    0.42
   4 -17   4    2.44    0.84
   4   4 -17    2.17    1.10
  17   4  -4    3.48    1.28
 -17   8   5    2.20    0.90
  -8 -17  -5    3.77    1.06
  -8  -5  17    0.29    0.93
   5   8 -17    2.07    1.29
   5  17  -8    2.63    1.18
   8  -5 -17    3.69    1.06
   8   5 -17    3.62    1.20
  17   5  -8    4.41    1.28
  17   8  -5   -0.05    1.16
  -6 -17   6    2.29    1.22
  17   6  -6    1.54    1.29
 -17   7   6    3.11    0.98
  -7 -17  -6    1.76    0.92
  -7   6  17    2.08    0.93
  -6 -17  -7    0.74    0.71
   6   7 -17    0.53    1.00
   6  17   7    1.85    0.84
   7  -6 -17    1.15    0.87
   7   6 -17    1.06    1.19
   7  17   6    1.57    0.78
  17  -7  -6    3.44    1.05
  17  -6  -7    0.89    0.96
  17   6  -7   -0.10    1.03
 -17   8   6   15.32    1.42
  -8 -17  -6   10.87    1.37
  -6   8  17   14.52    1.29
   8  -6 -17   10.86    1.30
   8   6 -17    9.48    1.52
   8  17  -6   11.69    1.63
  17  -8  -6   17.07    1.42
  17   8  -6   16.84    2.03
 -17   7   7    0.86    0.88
  -7 -17  -7    4.15    1.00
   7  -7 -17    2.26    0.85
   7   7 -17    4.69    1.34
   7  17  -7    4.94    1.36
   7  17   7    2.59    1.00
  17  -7  -7    4.22    1.06
  17   7  -7    3.52    1.22
 -16  -8   1    3.16    1.40
 -16  -1   8    3.86    1.27
  -8 -16  -1    5.46    1.23
  -8 -16   1    2.02    1.03
  -8  -1  16    3.07    1.08
  -8   1  16    0.82    0.92
  -1 -16   8    1.47    1.06
  -1  -8  16    1.60    1.15
   1 -16   8    2.71    1.06
   1   8 -16    3.77    1.36
   8  -1 -16    4.10    1.18
   8  16  -1    2.09    0.96
  16  -1  -8    4.88    1.23
  16   8  -1    2.51    1.26
  16   8   1    1.84    0.97
 -16   0   8   29.75    2.11
  -8 -16   0   26.02    1.86
  -8   0  16   27.69    1.96
   0   8 -16   24.32    1.94
   0  16  -8   25.38    1.91
   8   0 -16   23.39    1.89
  16   0  -8   22.40    1.96
 -16  -3   7    1.31    1.13
 -16   3   7    1.35    1.01
  -7  -3  16    2.59    0.99
  -3 -16   7    3.21    1.09
  -3  -7  16    0.61    0.99
  -3  16  -7    0.83    0.94
   3  16  -7    1.59    1.00
   7  -3 -16    2.14    1.05
   7   3 -16    2.37    1.15
 -16  -7   2   42.04    2.60
  -7 -16   2   38.79    2.34
  -7  -2  16   36.43    2.24
  -2  16  -7   35.11    2.02
   2  16  -7   32.77    2.02
   7   2 -16   32.74    2.19
   7  16   2   30.13    1.96
  16   7  -2   30.85    2.33
  16   7   2   42.21    2.46
 -16   1   7   32.33    2.15
  -7   1  16   34.40    2.18
  -1  -7  16   26.33    1.96
 -16  -7   0    0.09    1.15
 -16   0   7    2.78    1.22
  -7 -16   0    2.23    1.13
  -7   0  16   -0.09    0.95
   0 -16   7    3.02    0.97
   0  16  -7    1.95    1.06
  16   0  -7    2.81    1.11
  16   7   0    0.88    1.16
 -16   4   7   46.76    2.45
  -4 -16   7   48.95    2.52
  -4  -7  16   42.65    2.55
 -16  -7   5    3.09    1.36
 -16  -5   7    4.71    1.45
 -16   7   5    2.53    0.93
  -7 -16   5    2.28    1.08
  -7   5  16    1.93    0.88
  -5 -16  -7    2.29    0.88
  -5  -7  16    3.27    1.32
   5  -7 -16    5.51    1.12
   5   7 -16   -0.12    1.21
   7  -5 -16    5.19    1.13
   7   5 -16    2.88    1.16
   7  16  -5    2.71    1.10
  16  -5  -7    5.12    1.09
  16   5  -7    6.25    1.49
  16   7  -5    5.11    1.37
 -16  -6  -2    4.20    1.40
 -16  -2   6    3.04    1.23
  -6   2  16    6.02    1.18
  -2 -16  -6    5.82    0.85
  -2  -6  16    2.29    1.16
   2 -16  -6    7.20    0.66
   2  16  -6    6.27    1.22
   6  -2 -16    2.93    1.08
   6   2 -16    4.33    1.22
   6  16   2    4.41    1.10
  16   2  -6    2.97    1.16
  16   6   2    3.16    1.11
 -16  -6  -1    5.25    1.38
 -16   1   6    4.20    1.24
  -6 -16  -1    4.11    1.00
  -6 -16   1    3.29    1.12
  -6   1  16    5.44    1.15
  -1 -16  -6    3.57    0.76
  -1 -16   6    1.52    0.94
  -1  16  -6    3.78    1.06
   1 -16   6    3.64    1.06
   6  -1 -16    1.84    1.04
   6   1 -16    2.21    1.17
  16   6   1    5.17    1.40
 -16   4   6   19.77    1.79
 -16   6   4   23.18    1.59
  -6 -16   4   25.09    1.89
  -6  -4  16   20.98    1.96
  -4  -6  16   24.03    1.97
   4   6 -16   23.35    2.04
   4  16   6   19.23    1.38
   6   4 -16   25.69    2.00
   6  16   4   19.88    1.53
 -16  -6   5   94.21    3.95
 -16  -5   6   88.46    3.80
 -16   5   6   90.89    3.46
  -6 -16  -5   82.48    3.01
   6   5 -16   84.63    3.56
  16  -6  -5   93.06    3.25
  16   5  -6   81.29    3.63
  -6 -16   6   35.98    2.36
   6   6 -16   26.93    2.10
 -16  -6   7   13.65    1.77
  -7 -16  -6   12.55    1.31
  -7  -6  16    9.21    1.54
   6  -7 -16    9.12    1.10
   7  -6 -16   12.77    1.29
   7  16  -6   11.20    1.62
   7  16   6    6.07    0.91
  16  -6  -7    8.61    1.32
 -16  -5   2    9.08    1.60
  -5 -16  -2   10.15    1.23
  -5  -2  16    9.38    1.41
  -2 -16   5    8.80    1.33
  -2  -5  16    8.61    1.44
  -2  16  -5   11.97    1.25
   2 -16  -5   12.41    0.83
   2 -16   5    9.97    1.18
   5  -2 -16    9.36    1.33
   5   2 -16    8.71    1.46
  16  -2  -5   16.01    1.58
 -16  -5  -1   40.78    2.32
  -5  -1  16   42.98    2.33
   1   5 -16   42.65    2.32
   1  16  -5   37.69    2.08
   1  16   5   37.94    1.63
   5  -1 -16   40.37    2.32
   5   1 -16   37.39    2.25
   5  16   1   34.81    1.94
  16   5   1   44.69    2.51
  -5 -16   0  342.70    8.47
   5  16   0  347.60    8.67
 -16  -5   3   17.36    1.91
  -5  -3  16   23.66    1.86
  -3 -16   5   24.00    1.80
  -3  16   5   23.59    0.99
   3   5 -16   16.47    1.63
   5   3 -16   23.78    1.94
   5  16   3   22.73    1.65
  16   5  -3   16.21    1.77
 -16  -5   4    8.06    1.58
 -16   4   5    7.07    1.23
  -5  -4  16    4.98    1.18
  -5  16   4    7.94    0.61
  -4  -5  16    3.66    1.27
  -4  16  -5    6.07    1.00
  -4  16   5    6.08    0.46
   4  -5 -16    6.46    1.14
   4   5 -16    5.74    1.45
   4  16   5    4.14    0.94
   5   4 -16    5.06    1.36
   5  16  -4    8.16    1.31
  16  -5  -4    8.31    1.19
  -5  -5  16  172.40    5.56
  -5  16   5  163.80    3.61
  -8 -16   5   43.83    2.50
  -8  -5  16   47.52    2.72
   5  -8 -16   37.54    1.94
   5  16  -8   41.47    2.60
   8   5 -16   36.60    2.27
   8  16  -5   42.73    2.52
  16  -5  -8   39.97    2.29
  -9  -5  16    8.51    1.42
   5  -9 -16    7.79    1.04
   5   9 -16    9.26    1.60
  16  -9  -5    4.98    0.96
  16   5  -9    8.81    1.54
  16   9  -5    3.02    1.36
 -16  -4  -1   16.47    1.72
  -4 -16  -1   23.75    1.60
  -1 -16  -4   19.06    1.25
   1 -16  -4   18.03    0.92
   1  16  -4   16.95    1.48
   1  16   4   18.79    1.25
   4  16   1   17.56    1.44
 -16  -4   0    0.62    0.95
  -4 -16   0    5.13    1.14
  -4  16   0    4.17    0.81
   0 -16  -4    3.68    0.63
   0 -16   4    1.72    0.86
   4 -16   0    2.24    0.70
   4  16   0    2.06    1.06
  16   0  -4    3.16    1.10
  16   4   0   -0.11    0.97
 -16  -4   2   22.69    1.94
  -2 -16  -4   28.52    1.47
  -2  -4  16   29.50    2.02
   2 -16   4   23.97    1.58
   4   2 -16   26.49    1.97
   4  16  -2   23.90    1.69
  16   4  -2   30.68    2.21
  -4  -3  16   10.08    1.45
  -4  16   3    7.24    0.74
  -3 -16  -4   10.03    1.08
  -3 -16   4   10.99    1.42
   4  16   3    4.89    1.03
 -16   8   4    1.20    0.82
  -8 -16  -4    3.36    1.01
  -8  -4  16    4.32    1.24
  -4 -16   8    1.26    1.04
   4  16  -8    3.83    1.26
   8  16   4    0.32    0.86
  16  -4  -8    2.77    1.14
  16   8  -4    3.73    1.26
 -16  -4   9    1.94    1.20
 -16   9   4    3.60    0.96
  -9 -16   4    6.17    1.31
  -9  -4  16    6.22    1.28
  -9   4  16    1.91    0.95
  -4 -16   9    3.96    1.21
   4   9 -16    5.77    1.39
   9  -4 -16    4.94    1.10
   9  16  -4    7.71    1.21
   9  16   4    6.91    1.17
  16  -4  -9    2.69    1.00
 -16  -4  10    2.27    1.10
 -16   4  10    6.36    1.27
 -10  -4  16    1.55    0.98
  10  -4 -16    3.20    1.12
  10   4 -16    2.50    1.23
  10  16  -4    7.89    1.60
  10  16   4    6.94    1.22
  16  10  -4    1.80    1.10
  16  10   4    7.42    1.42
 -16  -4  11    3.62    1.45
 -16   4  11    1.67    0.98
 -11 -16  -4    2.79    1.04
 -11  -4  16    2.71    1.19
   4  16 -11    3.99    1.30
  11  -4 -16    1.91    1.15
  11   4 -16    3.34    1.33
  11  16   4    0.42    0.91
  16  -4 -11    1.24    1.06
  16   4 -11    3.79    1.34
 -16  -3   1   16.20    1.66
 -16   1   3   12.28    1.44
  -3  16  -1   13.09    1.10
  -1 -16  -3   13.71    1.11
  -1 -16   3   11.31    1.25
  -1  16  -3   12.27    1.26
  16  -1  -3   17.23    1.54
  16   1  -3   12.38    1.53
 -16  -3   0   52.21    2.63
  -3   0  16   45.60    2.29
   0  16  -3   43.27    2.09
   0  16   3   44.79    1.80
  16   3   0   49.46    2.54
 -16  -2   3   40.84    2.35
 -16   3   2   34.01    2.03
  -3  -2  16   33.46    2.03
  -2 -16   3   44.37    2.32
   2  16   3   40.47    1.83
   3  16   2   35.44    1.76
  16  -3  -2   37.26    1.99
  16   3  -2   45.03    2.44
  -3 -16  -3   44.96    2.00
  -3  16  -3   36.72    1.78
   3  16   3   44.85    1.99
   3 -16  -6   10.37    0.64
   3  16  -6   13.88    1.54
   3  16   6   11.75    0.99
   6  -3 -16    8.57    1.23
  16  -3  -6   14.77    1.55
  16   6  -3    8.36    1.44
  -8 -16   3   30.42    2.19
  -8   3  16   24.21    1.75
  -3  16  -8   24.38    1.68
   3 -16   8   24.34    1.67
   3   8 -16   27.05    2.20
   8   3 -16   25.27    2.00
   8  16   3   26.06    1.84
  16  -3  -8   31.50    2.16
  -9 -16  -3    3.24    1.02
  -9 -16   3    1.76    1.08
  -9  -3  16    4.92    1.27
  -9   3  16    5.19    1.09
  -3 -16   9    1.54    1.03
  -3  16  -9    0.98    0.90
   3 -16   9    5.76    1.11
   3  16  -9    2.06    1.11
   9  -3 -16    4.01    1.06
   9   3 -16    1.55    1.11
   9  16  -3    5.34    1.29
   9  16   3    3.92    1.10
  16   3  -9    3.61    1.21
  16   9   3    0.51    1.05
 -16  -3  10    4.21    1.29
 -10 -16   3    6.63    1.60
 -10  -3  16    6.00    1.38
  -3  16 -10    5.05    1.15
   3  10 -16    1.67    1.23
  10   3 -16    5.36    1.32
  16  10  -3    2.66    1.36
 -16   3  11    6.05    1.34
 -11 -16  -3    6.35    1.25
  -3  16 -11    7.47    1.33
   3  11 -16    7.76    1.73
  16  -3 -11    8.71    1.37
  16   3 -11   13.18    1.65
  16  11  -3    5.21    1.76
 -16  -2   0    4.81    1.36
   0  16  -2    2.16    0.91
 -16  -2   1    7.27    1.44
 -16  -1   2    4.36    1.24
  -1 -16   2    5.98    1.13
  -1  16  -2    5.34    0.97
   1 -16   2    4.33    0.90
   1  16  -2    1.75    0.88
   1  16   2    4.84    0.75
   2   1 -16    4.00    1.12
  16  -1  -2    5.88    1.26
 -16  -2   2   61.65    2.82
 -16  -2   8   29.05    2.01
 -16   2   8   31.30    2.05
  -8   2  16   25.47    1.85
  -2 -16   8   26.25    1.86
   8  -2 -16   24.12    1.86
  16  -2  -8   24.63    1.90
  16   2  -8   26.97    2.08
  16   8  -2   31.89    2.32
  16   8   2   27.56    1.97
  -9 -16   2    4.74    1.25
   9   2 -16    9.75    1.54
   9  16  -2    2.60    1.13
  16   9  -2    9.46    1.60
 -16  -2  10   10.52    1.62
 -10  -2  16    3.55    1.23
 -10   2  16    8.20    1.34
   2  10 -16    7.80    1.45
  10   2 -16    4.09    1.21
  10  16  -2    6.78    1.35
  16  -2 -10    6.17    1.23
  16   2 -10    8.26    1.39
  16  10   2    4.21    1.20
 -16  -2  11    3.45    1.18
 -16   2  11    3.78    1.18
 -11  -2  16    0.91    1.07
   2  11 -16    3.71    1.31
   2  16 -11    2.53    0.96
  11   2 -16    1.12    1.18
  11  16  -2    1.56    1.11
  16  -2 -11    1.31    0.90
  16   2 -11    2.83    1.25
  -1  16  -1   14.38    1.19
   1 -16   1   14.68    1.07
  16   1  -1   20.05    1.73
   0  16  -1   14.52    1.32
  16   0  -1    9.62    1.40
  -9 -16   1    5.64    1.30
  -9   1  16   10.83    1.45
  -1  16  -9    9.31    1.44
   1  16  -9    6.96    1.31
   9   1 -16    6.45    1.36
   9  16  -1    4.82    1.17
  16   9   1    5.69    1.41
 -16  -1  10    5.44    1.34
 -10 -16  -1    3.00    1.05
 -10 -16   1    5.36    1.21
 -10  -1  16    4.71    1.28
 -10   1  16    6.76    1.38
  -1  16 -10    4.06    1.09
  10  -1 -16    8.04    1.44
  10   1 -16    4.72    1.27
  10  16  -1    7.27    1.42
  10  16   1    4.55    1.23
 -16  -1  11   14.01    1.68
 -16   1  11   18.07    1.76
 -11  -1  16   10.99    1.65
  11   1 -16   21.63    2.17
  11  16  -1   14.94    1.72
  16   1 -11   18.77    1.94
  16  11   1   16.16    1.84
 -16   0   9    1.63    1.00
  -9 -16   0    3.53    1.12
   0 -16   9    3.15    1.08
   0   9 -16    0.48    1.02
   0  16  -9    2.09    1.06
   9   0 -16    1.80    1.18
   9  16   0    1.49    1.03
 -16   0  10   22.15    2.03
   0 -16  10   24.89    1.93
  10   0 -16   22.31    1.94
 -11 -16   0  130.30    4.71
 -16   4   4   53.70    2.52
  -4  -4  16   57.42    2.83
   4 -16  -4   48.12    1.45
   4  -4 -16   51.73    2.40
 -16   5  10   25.61    1.90
 -10 -16  -5   22.05    1.74
 -10  -5  16   18.93    2.10
 -10   5  16   18.72    1.64
  10  16   5   22.94    1.74
 -16   8   6   16.73    1.43
  -8 -16   6   10.49    1.67
  -6 -16   8   10.29    1.64
  -6   8  16   15.05    1.33
   6  -8 -16   11.86    1.19
   8  -6 -16   15.60    1.47
   8   6 -16   15.93    1.91
  16   8  -6   12.17    1.69
   6  16  -9    1.25    1.16
   9  -6 -16    3.42    0.95
   9   6 -16    1.98    1.18
  16  -6  -9    1.00    0.93
  16   6  -9    2.73    1.15
 -16   6  10    4.34    1.06
 -10 -16  -6    2.43    1.00
 -10   6  16    5.59    1.11
   6  10 -16    4.62    1.38
   6  16 -10    3.52    1.38
  10   6 -16    5.95    1.38
  10  16  -6    5.09    1.31
  10  16   6    1.44    0.98
  16 -10  -6    1.02    0.73
  16   6 -10    2.87    1.31
 -16   7   7   35.74    2.10
  -7   7  16   29.05    1.77
  -7   8  16   14.10    1.33
   7  -8 -16   10.70    1.18
   7   8 -16   12.98    1.81
   8  16  -7    8.57    1.52
  16   8  -7   13.74    1.66
  -9 -16  -7   10.49    1.39
  -7   9  16   11.67    1.18
   7  -9 -16    7.94    1.05
   7   9 -16    5.12    1.47
   9  -7 -16    9.63    1.25
  16  -9  -7    7.46    1.12
  16   7  -9    9.34    1.71
 -15  -4   9    8.58    1.59
  -9 -15  -4   13.14    1.51
  -9 -15   4   12.92    1.65
  -9   4  15   17.23    1.55
  -4 -15   9   15.77    1.60
   9   4 -15   10.26    1.57
   9  15  -4   12.59    1.72
  15  -4  -9   13.47    1.44
  15   4  -9   14.53    1.74
  15   9  -4    9.51    1.80
 -15  -9  -3    4.59    1.39
 -15  -9   3    9.54    1.62
 -15  -3   9    9.11    1.57
  -9   3  15    4.93    1.12
  -3 -15   9    7.69    1.38
   3  15  -9    3.85    1.24
   9  -3 -15    5.40    1.26
  15   9  -3    3.92    1.50
   9  -2 -15   82.59    3.42
 -15  -9  -1    2.01    1.25
 -15   1   9    1.86    1.18
  -9 -15  -1    2.70    1.07
  -9  -1  15    6.97    1.41
  -1 -15   9    2.31    1.09
  -1  15  -9    2.18    1.01
   1  15  -9    6.82    1.36
   9   1 -15    8.86    1.45
   9  15  -1    4.37    1.29
   9  15   1    3.10    1.09
  15  -1  -9    3.83    1.16
  15   1  -9    6.14    1.39
  15   9   1    4.92    1.33
  -9 -15   0   66.01    2.89
  -9   0  15   71.28    3.17
   0   9 -15   68.11    3.08
   9   0 -15   79.63    3.42
 -15  -8   3    1.67    1.07
  -8 -15  -3    1.01    1.06
  -8  -3  15    2.77    1.16
  -3  -8  15    3.04    1.30
   3  15  -8    1.17    1.30
   8   3 -15    2.72    1.19
  15   3  -8    0.11    1.04
 -15  -8  -2   59.35    2.94
  -8 -15  -2   62.06    2.76
   8   2 -15   63.09    2.98
   8  15  -2   65.13    2.97
  15   8   2   55.26    2.79
  -8 -15   1   78.05    3.27
  -1  15  -8   72.07    3.01
   8   1 -15   82.93    3.47
 -15   0   8    3.60    1.17
  -8   0  15    2.73    1.15
   8   0 -15    2.94    1.17
 -15  -4   8   32.13    2.30
  -8  -4  15   39.80    2.39
   4  15  -8   36.43    2.35
  15   4  -8   33.90    2.27
  15   8  -4   41.62    2.65
  -8 -15   5   11.53    1.61
  -8  -5  15   10.05    1.58
  -5 -15   8   13.81    1.55
   5   8 -15    9.69    1.63
   8   5 -15   17.97    1.89
  15  -8  -5   14.02    1.32
 -15  -8   6    7.20    1.40
 -15   6   8    2.79    0.95
  -8 -15  -6    6.03    1.12
  -8  -6  15    1.31    1.12
  -8   6  15    2.39    0.83
  -6  15   8    4.30    0.30
   6  -8 -15    3.77    0.91
   8   6 -15    6.58    1.51
   8  15  -6    5.74    1.35
   8  15   6    4.64    1.07
  -7  -3  15   46.64    2.54
  -3  -7  15   40.22    2.38
  -3  15  -7   39.89    2.07
   3 -15   7   44.45    2.10
   3   7 -15   44.06    2.49
   7  -3 -15   40.99    2.20
   7   3 -15   49.50    2.70
   7  15  -3   45.12    2.43
  15  -3  -7   47.75    2.46
 -15  -7  -2   30.98    2.22
 -15   2   7   28.72    1.94
  -2 -15   7   31.24    1.97
   7  15   2   35.19    2.05
 -15  -7   1    3.20    1.26
 -15   1   7    5.31    1.30
  -7 -15   1    1.88    1.16
  -7   1  15    1.17    0.98
  -1 -15  -7    3.03    0.65
   1 -15  -7    2.97    0.57
   1 -15   7    3.15    1.02
   1  15  -7    2.91    1.07
  15   1  -7    2.22    1.19
   0 -15   7   80.63    3.16
   7  15   0   79.73    3.18
 -15  -7   4    1.41    1.14
 -15  -4   7    4.97    1.30
 -15   4   7    2.56    1.04
 -15   7   4    4.48    0.99
  -7 -15  -4    3.35    1.08
  -7 -15   4    5.16    1.24
  -7  -4  15    4.29    1.17
  -7   4  15    2.32    0.99
  -4 -15   7    3.23    1.23
  -4  -7  15    0.61    1.08
   4   7 -15    2.37    1.29
   4  15  -7    3.48    1.35
   7  -4 -15    2.11    0.98
   7   4 -15    3.12    1.08
   7  15  -4    4.81    1.23
  15  -7  -4    2.75    0.88
  15   4  -7    1.78    1.08
  15   7  -4    4.49    1.43
 -15  -7   5   39.57    2.51
 -15  -5   7   51.07    2.76
  -7 -15   5   37.89    2.33
  -5  -7  15   41.00    2.56
   5   7 -15   46.50    2.65
   7  -5 -15   44.39    2.19
   7  15  -5   38.97    2.31
  15   5  -7   49.55    2.81
  -7  -6  15   27.44    2.15
  15  -7  -6   35.04    1.92
  15  -6  -7   27.25    1.79
  15   6  -7   37.70    2.49
 -15  -7   7    6.54    1.46
  -7  -7  15    7.49    1.51
   7  -7 -15    5.01    1.02
   7   7 -15    6.34    1.49
  -8   7  15   23.73    1.60
   7  -8 -15   29.35    1.68
   8  -7 -15   24.77    1.64
   8   7 -15   26.17    2.25
  15   8  -7   22.75    2.03
 -15  -6  -2    4.61    1.33
 -15  -6   2    4.01    1.23
  -6 -15   2    4.88    1.20
  -6   2  15    1.24    1.04
  -2  15  -6    3.89    0.99
  -2  15   6    4.14    0.49
   6  15  -2    5.23    1.25
  15   6   2    2.12    1.22
 -15  -6  -1   74.82    3.16
  -6 -15  -1   76.50    3.00
  -6  -1  15   78.02    3.09
  -1 -15   6   81.23    3.09
   1 -15  -6   78.87    2.17
   1 -15   6   79.58    2.97
  15  -1  -6   87.13    3.67
  15   1  -6   92.74    3.60
   0 -15   6   56.76    2.55
   0  15  -6   51.59    2.33
 -15   6   4   32.40    1.78
  -6 -15   4   33.46    2.08
  -4  -6  15   39.07    2.37
  -4  15   6   38.95    0.99
   4   6 -15   31.59    2.18
   6  -4 -15   34.67    2.01
   6  15  -4   41.26    2.28
  15   6  -4   36.38    2.45
 -15   5   6    3.10    1.05
  -6 -15  -5    2.65    0.98
  -6  -5  15    4.42    1.38
  -5   6  15    2.64    0.86
  15   5  -6    1.01    1.32
 -15  -6   6    3.76    1.37
  -6  -6  15    9.47    1.48
  -6   6  15    7.93    1.10
   6  -6 -15    3.47    0.94
   6  15  -6    5.09    1.39
   6  15   6    7.21    1.12
  15  -6  -6    3.73    1.01
  15   6  -6    2.25    1.28
 -15   6   9    5.37    1.07
 -15   9   6    8.32    1.09
  -9  -6  15    3.16    1.27
  -6   9  15    3.84    0.88
   6   9 -15    7.93    1.57
   9   6 -15    9.10    1.66
   9  15   6    4.70    1.17
  15  -6  -9    2.90    1.02
  15   9  -6    6.11    1.60
  -5 -15  -2    8.98    1.23
  -5  -2  15   11.98    1.45
  -5   2  15    8.52    1.26
  -2 -15  -5    6.20    0.81
  -2 -15   5   11.56    1.36
  -2  15  -5   10.01    1.25
  -2  15   5    9.19    0.71
   2 -15   5    7.29    1.08
   5  -2 -15    7.50    1.30
   5  15  -2   12.09    1.45
  -5 -15   1   44.98    2.21
  -5   1  15   38.56    2.12
   1  15   5   46.76    1.74
   5  15  -1   38.77    2.14
  15  -1  -5   37.13    2.22
  15   5  -1   44.30    2.47
 -15  -4   5   47.42    2.57
  -5 -15   4   54.96    2.62
  -4  15   5   49.19    1.28
   4  -5 -15   52.29    2.23
 -15  -5   5    2.71    1.19
 -15   5   5    3.00    1.07
   5   5 -15    1.59    1.18
  15   5  -5    0.94    1.29
 -15  -5   9    1.04    1.15
  -9  -5  15    4.19    1.29
  -9   5  15    2.61    0.95
   5  15  -9    6.14    1.37
   9  15  -5    5.10    1.37
  15  -9  -5    1.91    0.79
  15  -5  -9    2.82    0.99
  15   9  -5    6.46    1.55
 -15   5  10   46.79    2.52
 -10  -5  15   47.10    2.79
  15  -5 -10   39.44    2.23
  15   5 -10   33.94    2.43
 -15  -5  11    1.10    1.11
 -15   5  11    1.34    0.92
 -11 -15  -5    1.05    0.91
 -11  -5  15    1.68    1.20
 -11   5  15    2.81    1.00
   5  11 -15    0.45    1.19
   5  15 -11    0.83    1.19
  11  -5 -15   -0.23    0.88
  15  -5 -11    1.33    0.81
  15   5 -11    2.52    1.20
  15  11  -5    2.55    1.30
 -15  -4  -1   33.97    2.14
 -15  -4   1   31.59    2.18
  -4 -15   1   31.74    1.85
  -1  15  -4   32.71    1.81
   1 -15   4   28.01    1.69
   1   4 -15   33.06    2.01
  15   4   1   37.53    2.19
   0  15   4  118.10    3.20
 -15  -4   2   25.73    1.94
 -15   4   2   27.51    1.73
  -4 -15   2   31.39    1.95
   2 -15   4   31.50    1.68
   4   2 -15   34.42    2.08
   4  15  -2   31.68    1.93
  15  -2  -4   27.98    1.88
 -15   3   4   37.85    2.15
 -15   4   3   47.27    2.26
  -4 -15  -3   36.96    1.87
  -4   3  15   38.57    1.98
   4   3 -15   37.02    2.23
  -4  15  -4    1.24    0.77
   4  -4 -15    1.33    0.99
   4   4 -15    4.78    1.14
   4  15   4    1.86    0.88
 -15  -4  10   18.75    1.85
 -10 -15  -4   28.78    1.93
 -10   4  15   27.86    1.97
  10   4 -15   28.08    2.28
  15  10  -4   22.55    2.15
 -15  -4  11   30.06    2.23
 -15   4  11   35.06    2.20
 -11  -4  15   25.47    2.18
 -11   4  15   27.64    1.94
  15   4 -11   27.07    2.26
  15  11  -4   24.49    2.21
 -15  -4  12    1.15    1.12
 -12 -15  -4    3.92    1.30
 -12   4  15    1.11    0.92
  12  15  -4    1.77    1.18
  15  -4 -12    2.98    1.10
  15   4 -12    2.67    1.20
  15  12  -4    0.21    1.37
  15  12   4    3.08    1.22
  -3  -1  15   11.48    1.38
  -1 -15   3    7.82    1.16
   1 -15  -3   11.39    0.87
   1  15   3    8.03    0.92
   3  -1 -15   14.72    1.49
  15  -1  -3   14.27    1.47
  15   0  -3   69.07    2.86
  15   3   0   55.72    2.51
  -3 -15  -2   30.79    1.66
  -3  -2  15   24.32    1.80
  -2  15  -3   34.99    1.81
   3 -15  -2   30.94    1.27
   3  15  -2   31.63    1.90
  15   2  -3   33.13    2.08
  -3 -15  -3   12.40    1.16
   3  15   3   10.13    1.15
 -15  -3   5   10.50    1.66
 -15   3   5    5.64    1.14
  -5 -15   3    6.88    1.32
  -3 -15   5    9.18    1.38
   3 -15   5    8.37    1.05
   5   3 -15   10.53    1.44
   5  15  -3    6.51    1.19
  15  -5  -3    7.60    1.24
  15  -3  -5    7.00    1.25
  15   5  -3    8.03    1.50
 -15  -3   6    9.15    1.57
 -15   6   3    8.01    1.18
  -6  -3  15   14.84    1.57
   6  -3 -15   13.93    1.48
   6   3 -15   13.19    1.36
  15   3  -6    7.44    1.41
 -15  -3  10    2.09    1.08
 -10 -15   3    1.11    1.07
 -10  -3  15    2.48    1.19
   3  15 -10    2.69    1.28
  10  -3 -15    1.20    0.93
  10   3 -15    3.85    1.36
  10  15   3    0.88    0.89
  15   3 -10    2.56    1.19
  15  10  -3   -0.27    1.16
  15  10   3    1.78    1.09
 -15  -3  11    2.62    1.12
 -11 -15  -3    1.66    1.00
 -11  -3  15    4.79    1.24
 -11   3  15    1.42    1.01
  -3  15 -11    1.19    0.95
   3  11 -15    5.31    1.45
  11  -3 -15   -0.23    0.92
  11  15  -3    1.40    1.14
  11  15   3    2.39    1.05
  15  11   3    1.64    1.20
 -12 -15  -3   23.92    1.93
 -12   3  15   20.66    1.80
  12  15   3   26.41    2.00
  15  12  -3   21.97    2.19
 -15  -2   0   37.21    2.11
 -15   0   2   40.97    2.17
 -15   1   2   88.45    3.13
   2 -15   1   88.81    2.73
   2  15  -1   92.91    3.12
   2  15   1   90.34    2.96
  15   1  -2   94.30    3.34
 -15   2   2  156.20    4.71
   2  15  -2  161.20    4.67
 -15  -2  10    3.24    1.19
 -15   2  10    1.20    0.98
 -10 -15   2    1.43    1.08
  -2 -15  10    4.38    1.30
   2 -15  10    0.54    0.82
   2  15 -10    2.19    1.09
  10  -2 -15    1.12    1.06
  10   2 -15    2.05    1.13
 -15  -2  11    0.71    1.02
 -11 -15   2    1.87    1.02
 -11  -2  15    1.22    1.09
 -11   2  15    3.27    1.13
   2 -15  11    2.35    1.10
   2  11 -15    3.36    1.40
   2  15 -11    2.32    1.19
  11  -2 -15    1.41    0.92
  11   2 -15    2.97    1.13
  11  15   2    0.77    1.00
  15  -2 -11    1.92    1.03
 -15  -2  12   23.39    1.98
 -15   2  12   23.82    2.00
 -12 -15  -2   24.13    2.08
 -12   2  15   22.07    1.99
   2  12 -15   23.55    2.18
  15  12  -2   27.42    2.29
  15  12   2   23.82    2.05
 -15  -1  -1    1.28    1.08
 -15   1   1    0.98    1.06
   1 -15   1    3.06    0.88
  15   1  -1    6.76    1.27
 -15  -1   0  114.60    3.88
   0 -15   1  117.90    3.46
 -10 -15  -1   12.95    1.50
   1  15 -10   15.38    1.75
  10  -1 -15   16.33    1.77
  15  10   1   14.50    1.73
 -15  -1  11   10.76    1.55
 -15   1  11   10.25    1.40
 -11 -15  -1    9.82    1.57
 -11  -1  15   12.11    1.62
 -11   1  15    4.61    1.17
   1  15 -11   10.79    1.57
  11   1 -15    9.38    1.51
  11  15  -1    6.17    1.36
  15  11   1    6.21    1.31
 -15  -1  12    4.42    1.20
 -15   1  12    4.45    1.19
  -1  12 -15    3.14    1.25
   1  15 -12    4.63    1.37
  15  -1 -12    7.44    1.38
  15  12   1    4.29    1.28
   0 -15   0   74.71    2.63
   0 -15  10   35.40    2.12
  10  15   0   44.66    2.52
  15   0 -10   42.35    2.54
 -15   0  11    5.42    1.29
 -11 -15   0   10.66    1.51
   0 -15  11    4.70    1.20
  11   0 -15    9.70    1.42
  11  15   0   12.06    1.58
  12  15   0   42.20    2.62
  15  12   0   41.76    2.63
 -15   6  10   69.24    3.01
   6  10 -15   69.43    3.46
  10  -6 -15   56.88    2.63
  10   6 -15   74.07    3.65
  15  -6 -10   63.27    2.82
  -6  11  15   12.99    1.08
   6  11 -15   13.46    2.02
   6  15 -11   16.23    1.91
  15  -6 -11   10.90    1.39
  15  11  -6   12.97    1.90
  -9   7  15   15.88    1.44
   9  -7 -15   15.79    1.47
   9   7 -15   19.50    2.11
  15   7  -9   22.76    2.26
  15   9  -7   15.63    1.88
 -15   7  10    5.58    1.01
 -15  10   7    7.04    1.06
 -10 -15  -7    7.36    1.18
 -10   7  15    8.86    1.18
  -7  10  15    6.17    0.93
   7 -10 -15    6.08    0.97
   7  10 -15    8.37    1.62
   7  15 -10    5.69    1.40
  10  -7 -15    5.35    1.14
  10  15  -7    7.26    1.53
  15 -10  -7    5.85    0.93
  15  -7 -10    4.72    1.07
  15   7 -10    6.96    1.69
  15  10  -7   11.01    1.78
  -8   8  15   14.45    1.33
  -8  15   8   12.03    0.63
   8   9 -15   34.98    2.61
   8  15  -9   31.16    2.43
   9   8 -15   37.92    2.73
   9  15  -8   27.53    2.21
  15  -9  -8   34.85    1.91
  15   8  -9   26.21    2.31
 -10   8  15   12.71    1.34
  -8  10  15   10.03    1.04
  10  -8 -15   11.76    1.25
  15  -8 -10    7.82    1.42
  15  10  -8    9.88    1.92
 -15   9   9   11.07    1.16
   9  -9 -15    7.28    1.07
  15   9  -9    8.51    1.70
 -14 -11  -4    0.32    1.19
 -14   4  11    2.84    1.04
 -11 -14   4    1.36    1.23
  -4 -14  11    1.22    1.24
   4  11 -14   -1.58    1.17
  11  14  -4    0.48    1.09
  14   4 -11    4.86    1.31
  14  11   4    4.44    1.28
 -11 -14  -3   35.74    2.18
 -11 -14   3   36.88    2.42
  -3 -14  11   32.82    2.05
   3  14 -11   29.64    2.17
  11  14  -3   40.33    2.52
  14  -3 -11   38.06    2.31
  14  11  -3   32.79    2.51
  14  11   3   41.22    2.45
 -14 -11  -2   29.24    2.17
 -11  -2  14   26.06    1.99
  11  14   2   25.01    1.96
  14  11  -2   25.03    2.16
 -14 -11  -1    2.02    1.14
 -14  -1  11    2.29    1.07
   1 -14  11    2.53    1.25
  11  14  -1    3.47    1.25
 -14 -11   0    5.32    1.36
   0 -14  11    8.55    1.35
   0  11 -14    5.48    1.47
   0  14 -11    7.89    1.43
  11  14   0    5.52    1.36
  14   0 -11   10.96    1.45
 -14 -10   4   37.59    2.66
 -14   4  10   50.13    2.54
 -10  -4  14   42.32    2.64
   4  10 -14   39.32    2.49
  10  14   4   42.70    2.28
  14  -4 -10   42.76    2.29
  14   4 -10   39.58    2.53
  14  10   4   48.30    2.50
 -14 -10  -3    0.14    1.08
 -14   3  10    3.31    1.02
   3  10 -14    1.52    1.32
   3  14 -10    4.46    1.44
  10  14   3    2.41    1.08
  14  -3 -10    3.34    1.16
  14   3 -10    2.77    1.24
  14  10  -3    1.26    1.34
 -10  -2  14   10.62    1.54
   2  10 -14    5.05    1.44
   2  14 -10    6.18    1.30
  10  -2 -14    6.41    1.29
  10   2 -14    7.71    1.48
  14  -2 -10    8.91    1.50
  14   2 -10   10.94    1.58
 -14 -10  -1   56.26    2.87
 -14  -1  10   47.52    2.63
 -10   1  14   43.57    2.38
  -1 -14  10   44.83    2.42
  10   1 -14   44.04    2.58
 -14   0  10   41.15    2.33
 -10 -14   0   42.68    2.38
  -9 -14  -4   69.41    2.82
  -4 -14   9   71.54    3.10
  -4  -9  14   74.33    3.34
   9  14   4   81.82    3.17
  14   4  -9   73.75    3.46
  14   9  -4   79.14    3.55
 -14  -9   3   55.63    3.06
  -9 -14   3   57.84    2.93
  -9   3  14   51.78    2.47
  -3  -9  14   56.66    2.88
   9  -3 -14   62.09    2.77
   9  14  -3   55.94    2.96
  14   9  -3   64.43    3.31
 -14  -9  -2    4.29    1.35
 -14  -9   2    3.80    1.41
 -14  -2   9    2.48    1.13
  -9 -14   2    3.40    1.28
  -2  14  -9    1.70    1.10
   2  14  -9    4.58    1.26
   9  -2 -14    2.26    1.15
   9   2 -14    2.29    1.10
   9  14  -2    4.35    1.20
  14  -2  -9    2.37    1.16
  14   9   2    1.18    1.24
 -14  -1   9    8.08    1.41
  -9 -14   1    3.06    1.15
  -1 -14   9    3.90    1.23
  -1  -9  14    9.21    1.56
   9  -1 -14    6.08    1.35
   9   1 -14    9.95    1.49
  14   9   1    3.87    1.26
   0  14  -9   74.38    2.88
   9   0 -14   69.52    3.08
  14   9   0   73.16    3.33
 -14  -9   5    8.01    1.46
  -9 -14  -5    4.61    1.07
  -9 -14   5    5.85    1.43
  -9   5  14    8.62    1.22
  -5  -9  14    3.10    1.27
   5  -9 -14    8.29    1.07
   5   9 -14    8.41    1.56
   5  14  -9    3.30    1.23
   9  -5 -14    8.58    1.23
   9   5 -14    9.69    1.68
   9  14  -5    4.73    1.26
  14  -9  -5    6.52    1.01
  14  -5  -9    8.83    1.29
 -14  -9   6    3.46    1.36
  -9 -14   6    2.11    1.15
  -6  -9  14    4.68    1.32
   6  -9 -14    1.75    0.69
   6   9 -14    5.63    1.50
   6  14  -9    5.60    1.55
   9  -6 -14    1.31    0.95
   9   6 -14    2.39    1.20
  14  -6  -9    0.77    0.88
  14   6  -9    1.65    1.08
  14   9  -6    2.07    1.22
 -14  -8   3  364.60    9.65
  -8 -14  -3  380.10    9.15
   3  14  -8  366.40    9.39
   8   3 -14  377.70    9.77
   8  14  -3  378.00    9.56
  14   8  -3  362.60    9.52
  14   8   3  405.90   10.05
   2   8 -14   85.97    3.49
 -14  -8   1    4.69    1.44
  -8 -14   1    5.27    1.24
  -8   1  14   12.81    1.49
  -1 -14   8   12.13    1.45
  -1  14  -8    6.34    1.17
   1  14  -8    8.41    1.29
   8  -1 -14   12.94    1.52
   8   1 -14    6.19    1.36
  14  -1  -8   10.48    1.47
  14   8   1    8.37    1.49
 -14  -8   0   34.46    2.41
   0  14  -8   31.70    2.08
 -14  -8   4    9.97    1.66
 -14  -4   8   15.14    1.86
 -14   8   4   10.67    1.15
  -8 -14  -4   11.87    1.32
  -8  -4  14   13.18    1.66
  -4 -14   8    9.81    1.53
  -4  -8  14   14.82    1.63
   4   8 -14   16.17    1.84
   4  14  -8    8.19    1.53
   8   4 -14   12.62    1.74
   8  14  -4    9.27    1.46
  14   4  -8   14.03    1.67
 -14  -8   5   17.15    1.96
 -14  -5   8   24.09    2.11
 -14   5   8   16.59    1.54
  -8 -14   5   16.27    1.68
  -8  -5  14   16.28    1.90
  -5 -14   8   22.08    1.94
  -5   8  14   22.25    1.37
   8  -5 -14   21.77    1.59
   8  14  -5   18.95    1.79
  14   8  -5   20.68    1.97
 -14   6   8   21.43    1.62
  -8 -14   6   23.05    2.04
  -8   6  14   19.58    1.43
   6   8 -14   11.92    1.75
   8   6 -14   12.04    1.74
 -14  -7   8    2.04    1.28
  -8 -14   7    2.77    1.12
  -7   8  14    1.28    0.78
   8   7 -14    3.18    1.41
  14  -8  -7    2.63    0.97
  14  -7  -8    1.04    0.90
  14   7  -8    3.32    1.44
  -8  -8  14  165.50    5.59
  -7   3  14    0.57    0.80
  -3  14  -7    2.73    0.96
   7   3 -14    4.98    1.23
   7  14  -3    2.58    1.11
  14  -3  -7    1.76    1.10
  14   3  -7    0.36    1.14
 -14  -7  -2    8.75    1.56
  -7 -14   2    6.12    1.29
  -7  -2  14    6.21    1.31
  -7   2  14    5.64    1.11
  -2 -14   7    2.46    1.08
   2 -14   7    2.00    1.08
   7   2 -14    7.44    1.34
 -14  -7  -1   49.01    2.49
 -14  -7   1   43.96    2.64
   1  14  -7   48.18    2.40
  14  -1  -7   49.11    2.50
  14   1  -7   49.82    2.61
  14   7  -1   49.92    2.60
 -14  -7   0   10.20    1.67
  -7   0  14    7.94    1.27
   7   0 -14    4.39    1.20
 -14  -7   4   34.99    2.35
  -4  -7  14   40.26    2.40
   7  -4 -14   39.57    2.08
  14  -7  -4   39.82    1.88
 -14  -7   5   23.55    2.10
  -7 -14   5   25.52    2.05
  -7   5  14   26.80    1.74
  -5 -14   7   32.78    2.24
   5   7 -14   28.67    2.18
   7  -5 -14   26.98    1.71
   7   5 -14   28.85    2.17
  14   7  -5   23.26    2.12
 -14  -6   7    4.19    1.38
  14   6  -7    2.91    1.34
 -14  -7   7   62.53    3.17
  -7  -7  14   72.47    3.35
   7   7 -14   77.09    3.49
  14  -7  -7   72.37    2.75
 -14  -7   9   22.77    2.24
  -7  -9  14   26.59    2.39
   9  -7 -14   20.21    1.58
   9   7 -14   24.17    2.19
   9  14  -7   24.16    2.06
  14   9  -7   22.75    2.17
 -14  -7  10   34.61    2.73
 -14   7  10   28.91    1.87
 -14  10   7   32.99    1.74
 -10   7  14   34.50    1.98
   7  10 -14   31.98    2.53
   7  14 -10   25.03    2.14
  10  -7 -14   36.11    2.03
  10   7 -14   26.47    2.26
  14  -7 -10   26.85    1.79
  14  10  -7   39.16    2.71
 -14  -6   2   30.56    2.27
 -14   2   6   28.82    1.87
  14   6  -2   25.79    1.84
 -14   1   6    2.39    1.07
  -6 -14   1    6.07    1.29
  -1 -14   6    5.08    1.24
  -1  -6  14    3.50    1.29
   1 -14   6    3.21    1.07
   1   6 -14    4.58    1.29
   6  -1 -14    2.19    1.12
   6  14  -1    5.92    1.30
  14  -1  -6    3.47    1.17
  14   6  -1    3.87    1.42
  14   0  -6   36.51    2.22
  14   6   0   36.97    2.25
 -14  -3   6    3.45    1.34
 -14   3   6    4.36    1.14
  -6  -3  14    4.12    1.03
  -3 -14   6    2.56    1.07
   3   6 -14    2.00    1.30
   3  14  -6    3.45    1.04
   6   3 -14    5.54    1.29
  -6  -4  14   35.32    2.21
   4  -6 -14   29.92    1.67
   6  -4 -14   30.07    1.79
   6   4 -14   27.58    2.02
  -6 -14   5   23.76    1.96
  -6  -5  14   18.72    1.78
  -6   5  14   23.35    1.58
  -5  -6  14   30.36    2.15
 -14   6   6   38.53    1.98
   6   6 -14   47.45    2.67
  14   6  -6   38.74    2.49
 -10  -6  14    4.48    1.40
  -6 -14  10    2.41    1.43
  -6  10  14    1.86    0.74
   6  10 -14    3.54    1.32
  10   6 -14    3.07    1.33
  10  14  -6    2.80    1.24
  14   6 -10   -0.16    1.23
  14  10  -6    1.64    1.24
 -11 -14  -6    3.59    1.09
 -11  -6  14    3.75    1.28
  -6  11  14    3.21    0.77
   6  11 -14    0.52    1.10
   6  14 -11    3.80    1.47
  11  14  -6    3.07    1.33
  14 -11  -6    2.12    0.66
  14  -6 -11    3.56    1.01
  14  11  -6    3.62    1.35
  -5 -14   2   37.35    1.99
  -5   2  14   35.75    1.98
  -2 -14   5   27.88    1.83
  -2  -5  14   32.74    2.06
  -2  14  -5   29.99    1.76
   2  14  -5   36.11    2.02
  14   5  -2   29.63    2.10
 -14  -5  -1   11.64    1.56
  -1 -14   5   11.66    1.27
  -1  -5  14   12.64    1.46
   1 -14   5   10.46    1.24
   1   5 -14    9.67    1.51
   1  14  -5   10.60    1.05
   5  14  -1   10.01    1.34
  14   5   1    6.80    1.36
   0 -14  -5   71.02    2.15
   0 -14   5   59.80    2.43
   0  14  -5   59.14    2.48
   0  14   5   65.51    1.97
  -4 -14  -5    6.13    0.98
  -4  -5  14    4.99    1.33
   4  -5 -14    8.89    1.15
   5   4 -14    5.71    1.34
 -14  -5   5    1.53    1.24
  -5 -14   5    3.49    1.31
   5   5 -14    0.74    1.15
 -14   5  10    1.12    0.91
 -10 -14   5    2.21    1.20
 -10  -5  14    3.18    1.30
 -10   5  14    1.99    0.93
  -5 -10  14    2.53    1.35
  10  14  -5    4.03    1.31
  14 -10  -5    1.54    0.65
  14  -5 -10    1.83    0.92
  14  10  -5    1.70    1.18
 -14  -5  11    1.40    1.24
 -14   5  11    4.68    1.15
 -11 -14  -5    5.87    1.25
 -11   5  14    1.80    0.92
   5  11 -14    3.45    1.32
   5  14 -11    1.90    1.27
  11  14  -5    0.92    1.20
  11  14   5    4.16    1.19
  14  -5 -11    3.40    1.06
  14   5 -11    5.13    1.35
  14  11  -5    1.66    1.38
  14  11   5    4.97    1.27
 -14   5  12    6.83    1.21
 -12 -14  -5    1.28    0.94
   5  12 -14    3.62    1.38
   5  14 -12    5.97    1.43
  12  -5 -14    5.45    1.12
  12   5 -14    2.89    1.22
  12  14  -5    2.90    1.34
  14  -5 -12    2.39    1.05
  14   5 -12    3.54    1.36
  14  12  -5    7.64    1.59
 -14  -4   1   44.05    2.45
 -14   1   4   44.98    2.27
  -4  -1  14   44.15    2.24
  -1 -14   4   47.69    2.16
   4 -14  -1   49.21    1.57
 -14  -4   0  133.10    4.30
   0 -14   4  142.00    4.16
   0  14   4  145.50    3.67
  14   0  -4  135.30    4.29
  -4  14  -2   26.27    1.33
   2 -14  -4   23.52    1.01
   2 -14   4   23.87    1.45
 -14   4  12   27.51    1.97
  12  -4 -14   26.67    1.94
  12  14  -4   21.34    2.00
  14   4 -12   29.52    2.26
 -14  -4  13    1.68    1.14
 -13   4  14    4.84    1.12
   4  14 -13    3.53    1.28
  13  -4 -14    3.88    1.13
  13  14  -4    1.72    1.17
  13  14   4    1.67    1.01
  14  -4 -13    3.36    1.03
  14   4 -13    3.62    1.31
  14  13   4    2.57    1.17
 -14  -3  -1   13.50    1.46
  -3  14  -1   12.04    1.01
  -3  14   1   13.75    0.94
  -1  14  -3   11.66    1.15
   1 -14  -3   14.88    0.87
   1  14  -3   16.14    1.36
   3  -1 -14    9.78    1.31
   3  14   0   60.72    2.37
 -14  -2   3  182.20    5.19
  -3  14   2  180.70    4.21
   2 -14   3  204.20    5.16
   3  -2 -14  196.40    5.26
  14   3  -2  199.20    5.71
 -14   3   4   46.98    2.27
   3   4 -14   50.66    2.51
  14  -4  -3   46.65    2.22
  14  -3  -4   42.88    2.16
 -14   3   5   23.68    1.77
  -3 -14   5   23.87    1.83
  -3  -5  14   27.84    2.00
 -14  -3  12    8.56    1.50
 -14   3  12    4.54    1.10
   3  12 -14    7.60    1.42
   3  14 -12    7.47    1.49
  12  -3 -14    5.85    1.29
  12   3 -14    3.23    1.18
  12  14  -3   10.21    1.62
  12  14   3    8.68    1.29
  14   3 -12    8.19    1.46
  14  12  -3    4.00    1.40
  14  12   3    5.48    1.31
 -14   3  13   28.91    2.02
 -13  -3  14   22.60    2.01
 -13   3  14   22.42    1.84
  13  14  -3   26.62    2.25
  14  -3 -13   27.28    2.00
 -14  -2   0   31.15    2.02
   0  14  -2   27.39    1.59
   2  14   0   28.01    1.57
 -14  -1   2   25.50    1.84
 -14   1   2   23.30    1.59
   1  14   2   28.08    1.45
   2   1 -14   25.17    1.74
   2 -14   2   37.76    1.53
   2  14  -2   32.42    1.89
  14  -2  -2   35.25    1.93
  14   2  -2   37.76    2.13
 -14  -2  12    4.89    1.24
 -14   2  12    2.49    1.05
 -12 -14  -2    6.45    1.37
  -2  14 -12    5.64    1.34
   2  12 -14    3.13    1.39
  12  -2 -14    3.21    1.12
  12   2 -14    1.92    1.05
  12  14   2    5.51    1.42
  14  -2 -12    3.30    1.10
  14   2 -12    5.19    1.33
  14  12  -2    4.90    1.48
  14  12   2    0.31    1.07
 -13  -2  14   13.77    1.67
  -2  14 -13   14.73    1.68
   2  14 -13   11.92    1.58
  13  -2 -14    9.71    1.47
  13   2 -14   17.23    1.91
  13  14  -2   12.00    1.63
  14   2 -13    9.71    1.51
 -14  -1   0    9.67    1.48
 -14   0   1    8.23    1.27
   0 -14   1    6.60    1.02
   0  14  -1    6.70    1.05
  14   1   0    3.73    1.09
   1  14   1   63.54    2.25
  14  -1  -1   55.33    2.33
 -14  -1  12    2.35    1.23
 -14   1  12    2.79    1.17
  -1  12 -14    4.61    1.34
   1 -14  12    1.87    1.01
   1  12 -14    3.86    1.35
  12  -1 -14    1.20    0.94
  12   1 -14    2.81    1.13
  12  14  -1    5.26    1.40
  12  14   1    3.34    1.23
 -14  -1  13    4.63    1.28
 -14   1  13    4.15    1.28
 -13  -1  14    4.00    1.17
  -1  13 -14    4.14    1.25
  -1  14 -13    2.30    0.99
   1  13 -14    3.64    1.24
   1  14 -13    5.40    1.32
  13  -1 -14    3.65    1.13
  13  14  -1    1.30    1.12
  13  14   1    1.04    0.91
  14  -1 -13    0.48    0.98
  -1  14 -14    2.00    1.16
   1  14 -14    0.82    1.13
  14  -1 -14    3.70    1.27
  14   1 -14    1.62    1.08
  14  14  -1    0.71    1.02
  14  14   1    1.51    1.06
 -14   0  12    1.50    1.12
 -12 -14   0    1.03    1.10
  12   0 -14    2.25    1.03
 -13   0  14    2.97    1.08
  13   0 -14    2.80    1.11
 -14   0  14    2.19    1.14
  14   0 -14    1.21    0.97
 -14   5  13   23.86    1.81
   5  14 -13   14.08    1.74
  13   5 -14   14.95    1.74
  13  14  -5   21.29    2.16
  14   5 -13   19.74    2.04
  14  13  -5   18.18    2.21
  14  13   5   14.92    1.74
 -14   6  12    5.73    1.08
 -12 -14  -6    5.58    1.16
   6  12 -14    0.95    1.22
  12  -6 -14    4.36    0.99
  12   6 -14    1.05    1.04
  14   6 -12    2.96    1.33
 -14  11   7    4.08    0.83
 -11 -14  -7    2.29    0.92
 -11  14   7    2.03    0.55
  -7  14  11    1.77    0.52
   7  11 -14    3.07    1.23
   7  14 -11    1.24    1.28
  11  14  -7    4.15    1.45
  14 -11  -7    0.63    0.67
  14   7 -11    2.27    1.14
  14  11  -7    0.45    1.30
 -14   7  12    4.36    1.02
 -14  12   7    4.12    0.85
   7  14 -12    2.79    1.45
  12  -7 -14    3.02    0.88
  12   7 -14    1.23    1.05
  12  14  -7    3.28    1.35
 -14   8   9   17.81    1.43
 -14   9   8   23.96    1.59
  -8   9  14   21.79    1.39
   9  -8 -14   21.23    1.52
   9   8 -14   18.90    2.01
  14   9  -8   19.60    2.11
 -14  10   8    4.23    0.92
 -10   8  14    6.91    1.06
  -8  10  14    4.72    0.83
  10   8 -14    8.35    1.54
  10  14  -8    4.17    1.30
  14 -10  -8    3.68    0.96
  14  -8 -10    3.94    0.92
 -14   8  11   28.25    1.79
   8  11 -14   22.43    2.26
  11  14  -8   20.15    2.08
  14  -8 -11   20.91    1.58
  -9   9  14    5.75    0.94
  -9  14   9    2.25    0.52
   9   9 -14    6.54    1.58
  14   9  -9    4.97    1.25
 -14   9  10    6.45    1.01
 -14  10   9    7.65    1.01
   9  10 -14    4.79    1.49
   9  14 -10    5.91    1.46
  10  14  -9    4.94    1.47
  14 -10  -9    4.26    0.90
  14   9 -10    7.61    1.48
  13  13  -4    1.77    1.29
  13  13   4    1.71    1.07
  13  13  -3   19.35    1.99
 -13 -13  -2    3.20    1.27
   2  13 -13    9.25    1.67
  13   2 -13   10.98    1.67
  13  13  -2    6.49    1.48
  13  13   2    7.74    1.42
 -13 -13  -1    6.81    1.34
   1  13 -13    6.66    1.39
  13  -1 -13    2.90    1.18
  13   1 -13    2.75    1.15
 -13 -12  -5    3.57    1.16
 -13  -5  12    2.49    1.22
 -12  -5  13    1.66    1.24
 -12   5  13    2.94    0.95
  12  13  -5    2.48    1.17
  12  13   5    1.00    1.17
 -13 -12  -4    6.91    1.27
 -13   4  12   11.49    1.40
 -12 -13  -4    7.38    1.35
 -12 -13   4    6.33    1.55
 -12  -4  13    6.16    1.37
   4  13 -12    6.54    1.54
  12   4 -13    6.49    1.40
  13  -4 -12   10.44    1.34
  13   4 -12    8.57    1.52
  13  12  -4    8.34    1.66
  13  12   4    8.18    1.35
  -3 -13  12   14.30    1.79
  12   3 -13   18.21    1.79
  12  13   3   13.00    1.53
  13   3 -12   19.93    1.81
  13  12  -3   13.73    1.86
 -13   2  12   15.26    1.63
 -12 -13   2    8.28    1.50
 -12  -2  13    7.37    1.36
  -2 -13  12    9.09    1.51
   2  13 -12   13.88    1.64
  12  -2 -13   14.68    1.60
  12  13   2    9.15    1.47
  13  -2 -12    8.92    1.41
  13   2 -12   13.97    1.67
 -13 -12   1    3.56    1.34
 -12 -13   1    5.36    1.27
 -12  -1  13    5.00    1.23
  -1 -13  12    3.26    1.16
  -1  12 -13    0.91    1.15
   1 -13  12    3.42    1.10
   1  12 -13    5.15    1.35
   1  13 -12    4.76    1.37
  12  -1 -13    1.53    1.03
  12  13  -1    5.79    1.40
  12  13   1    5.54    1.27
 -13 -11   5    5.22    1.49
 -11 -13  -5    2.74    1.05
 -11 -13   5    5.58    1.37
  -5 -13  11    3.14    1.20
   5 -11 -13    3.81    0.71
   5  11 -13    3.68    1.36
   5  13 -11    2.12    1.29
  11   5 -13    0.27    1.06
  11  13  -5    5.18    1.46
  11  13   5    0.19    1.00
  13  11  -5    3.91    1.36
  13  11   5    5.19    1.25
 -13 -11  -4    3.30    1.20
 -11 -13  -4    3.69    1.11
  -4 -13  11    3.48    1.28
   4  11 -13    7.49    1.66
   4  13 -11    5.16    1.36
  11  -4 -13    5.83    1.16
  11   4 -13    3.05    1.20
  11  13   4   10.46    1.49
  13  -4 -11    4.68    1.18
  13  11  -4    3.47    1.41
 -11 -13  -3   13.46    1.44
  11  -3 -13   10.95    1.31
  11   3 -13   14.10    1.65
  13   3 -11   15.81    1.72
  13  11  -3   15.15    1.76
 -13 -11  -2   17.73    1.77
 -13 -11   2   23.18    2.12
 -13  -2  11   23.19    1.94
 -11 -13   2   18.56    1.83
  -2 -13  11   22.42    1.86
   2  13 -11   17.17    1.75
  11  -2 -13   23.32    1.78
  13  11   2   17.47    1.75
 -13 -11  -1    4.37    1.30
 -11 -13   1    4.38    1.22
  11  13   1    4.10    1.18
  13  -1 -11    4.81    1.15
  13   1 -11    4.21    1.22
  13  11   1    2.47    1.07
 -13 -11   0    2.70    1.21
 -13   0  11    7.36    1.38
  11   0 -13    6.69    1.35
  13   0 -11    6.85    1.31
  13  11   0    5.26    1.19
 -13   4  10   31.74    1.92
 -10 -13   4   28.51    2.15
  10  13   4   33.71    2.00
 -13 -10  -3    5.76    1.29
 -13 -10   3    3.62    1.37
 -13  -3  10    5.55    1.33
 -10 -13  -3    5.98    1.30
 -10  -3  13    5.61    1.26
  -3 -10  13    2.41    1.22
   3  10 -13    4.88    1.23
  10  13   3    0.27    1.01
  13  10  -3    3.90    1.45
  13  10   3    0.89    0.91
 -13 -10  -2   10.33    1.53
 -13  -2  10    3.68    1.14
 -10   2  13    5.57    1.19
  -2 -13  10    9.10    1.42
  -2 -10  13    9.30    1.48
   2  10 -13    8.71    1.61
  13   2 -10    7.48    1.36
  -1  10 -13   19.01    1.72
   1 -13  10   13.54    1.57
   1  10 -13   15.85    1.72
  13  -1 -10   12.98    1.55
  13   1 -10   12.22    1.59
 -13 -10   0   12.54    1.65
 -13   0  10   14.98    1.52
  13   0 -10   14.94    1.59
 -13 -10   5    2.43    1.23
 -10  -5  13    2.02    1.15
  -5 -13  10    1.63    1.24
  -5 -10  13    3.84    1.35
   5  10 -13    0.74    1.25
  10  13   5   -0.05    0.98
  13   5 -10    3.59    1.24
 -13  10   6    2.31    0.84
 -10 -13  -6    4.63    1.07
 -10 -13   6    8.97    1.63
 -10  -6  13    1.17    1.12
  -6 -13  10    3.97    1.32
  -6 -10  13    3.20    1.25
   6 -10 -13    3.82    0.80
   6  13 -10    2.97    1.41
  13  -6 -10    1.86    0.87
  13  10  -6    2.60    1.43
 -13  10   7   37.31    1.75
  -7  13  10   34.12    1.25
  13  -7 -10   37.10    1.98
 -13  -9   4   95.67    3.92
   9  -4 -13   97.55    3.52
  13   4  -9   98.13    3.91
   3  13  -9   25.68    1.96
  13   3  -9   30.13    2.22
  13   9   3   28.40    2.02
 -13   2   9    4.95    1.28
  -9 -13  -2    5.86    1.33
  -9 -13   2    8.26    1.42
  -9  -2  13   10.71    1.56
  -9   2  13    8.35    1.40
  -2  -9  13    3.49    1.32
  -2  13  -9    3.41    1.14
   2 -13   9    8.28    1.22
   2   9 -13    3.18    1.37
   9  -2 -13    9.93    1.51
   9   2 -13    2.64    1.28
   9  13  -2    7.16    1.38
  13   2  -9    5.40    1.28
  13   9   2    3.76    1.23
  -9 -13  -1    2.61    1.20
  -9  -1  13    1.81    1.15
  -1 -13   9    1.48    1.08
   1  13  -9    1.50    1.16
   9  -1 -13    3.04    1.37
  13  -1  -9    4.42    1.31
  13   9   1    2.49    1.21
   0 -13   9  219.60    6.02
   0  -9  13  233.60    6.52
   9   0 -13  232.00    6.52
  13   0  -9  224.40    6.37
  13   9   0  227.50    6.56
 -13  -5   9    6.37    1.47
  -9 -13  -5    4.33    1.14
  -9 -13   5    6.22    1.35
  -9  -5  13    1.46    1.21
  -5  -9  13    7.54    1.52
  -5   9  13    4.19    0.77
   5   9 -13    1.70    1.34
   5  13  -9    2.29    1.20
   9  -5 -13    4.68    1.12
   9   5 -13    3.02    1.30
   9  13  -5    3.16    1.21
  13  -9  -5    3.83    0.84
  13   5  -9    4.80    1.43
 -13   9   6   -0.02    0.71
  -9  -6  13    1.70    1.16
   9   6 -13    4.27    1.37
  13   9  -6    4.59    1.51
 -13  -7   9   22.35    2.14
  -9  -7  13   26.54    2.08
  -7   9  13   19.16    1.23
  -7  13   9   22.48    0.93
   7  -9 -13   21.73    1.41
   7   9 -13   18.49    1.91
   9  -7 -13   19.99    1.49
  13   7  -9   18.12    1.91
 -13  -8   9   41.63    2.64
  -9   8  13   36.29    1.85
   8 -13  -9   40.25    1.39
  13  -8  -9   38.06    1.93
 -13  -3   8  345.10    8.94
  -3  -8  13  315.20    8.32
   3   8 -13  302.80    8.02
   8  13  -3  333.10    8.63
 -13   2   8   61.89    2.73
  -8  -2  13   57.18    2.80
  -2  13  -8   56.19    2.52
   2   8 -13   50.03    2.64
  13  -2  -8   57.63    2.62
 -13  -8  -1    1.98    1.10
  -8  -1  13    5.00    1.30
  -8   1  13    3.92    1.15
   8  13  -1    3.68    1.19
  13   8   1   -0.36    1.28
   8  13   0  153.90    4.67
 -13  -8   4   27.13    2.12
 -13   4   8   31.69    1.88
  -8  -4  13   33.06    2.29
  -8   4  13   28.20    1.73
  -4  -8  13   29.14    2.20
   4   8 -13   22.38    1.94
   8   4 -13   27.24    2.13
  13  -8  -4   27.06    1.62
 -13  -5   8    6.63    1.53
 -13   8   5    8.16    1.03
  -8 -13   5    6.64    1.31
  -8  -5  13   11.36    1.68
   5  13  -8   11.53    1.68
   8  13  -5   13.34    1.65
   8  13   5    8.49    1.19
 -13   6   8    8.32    1.13
   6  -8 -13   12.00    1.14
   8  13  -6    6.16    1.40
  13   6  -8   13.47    1.75
 -13  -8   7    1.91    1.36
 -13   7   8    3.17    0.91
  -7   8  13    0.36    0.74
   7   8 -13    0.56    1.12
   8  -7 -13    2.61    0.86
   8   7 -13    4.61    1.60
  13   8  -7    3.68    1.32
   8  -8 -13  235.30    5.93
 -13   8  10    0.68    0.78
 -10  -8  13    5.12    1.47
   8  10 -13    5.27    1.50
  10  13  -8    4.12    1.36
  13  10  -8    4.97    1.49
  -7 -13   3   17.32    1.70
  -7  -3  13   19.14    1.76
  -3 -13   7   19.45    1.72
   7  -3 -13   24.03    1.67
  13  -3  -7   18.18    1.55
 -13  -7  -2   35.57    2.23
 -13  -2   7   31.11    2.09
  13  -2  -7   34.92    2.06
 -13  -1   7   70.93    2.97
  -7 -13   1   65.61    2.69
   1  13  -7   58.50    2.57
   7  13   1   72.90    2.88
  13  -1  -7   73.42    3.02
  13   1  -7   63.92    2.85
  13   7  -1   61.59    2.89
  -7   4  13   47.57    2.17
  -4  -7  13   40.99    2.44
   4  -7 -13   44.86    1.85
   7  13   4   47.62    2.14
  13  -7  -4   44.74    1.91
  13   7  -4   50.56    2.60
 -13  -7   5   35.67    2.35
 -13   5   7   37.45    1.98
  -7  -5  13   33.05    2.22
  -7   5  13   35.17    1.84
  -5 -13   7   30.14    2.16
   5   7 -13   36.86    2.29
   7   5 -13   36.79    2.25
  13  -5  -7   31.74    1.85
  13   7  -5   35.45    2.37
 -13  -7   6    3.44    1.37
 -13   6   7    0.51    0.82
  -7   6  13    1.42    0.85
  -6  -7  13    2.65    1.25
   6   7 -13   -1.06    1.12
  13  -6  -7    1.25    0.97
  13   6  -7    2.53    1.31
 -13   7   7  125.50    3.85
  -7 -13   7  128.60    4.57
  -7  -7  13  116.40    4.21
  -7   7  13  121.00    3.59
   7  -7 -13  133.50    3.87
 -11  13   7    2.64    0.65
  -7  11  13    2.38    0.74
   7  11 -13    4.26    1.53
  11   7 -13    1.43    1.23
  11  13  -7    2.27    1.25
  13 -11  -7    2.78    0.75
  13   7 -11    4.35    1.48
  13  11  -7    0.87    1.14
 -13  -2   6    2.27    1.12
  -6 -13  -2    3.83    1.02
  -6   2  13    4.15    1.01
   6  13  -2    5.08    1.18
  13  -2  -6    3.24    1.06
  13   6   2    1.73    1.25
  -1  -6  13    3.16    1.15
   1 -13   6    1.68    1.00
  13   1  -6    0.94    1.17
 -13   0   6   41.73    2.27
  -6 -13   0   44.39    2.13
   0 -13   6   40.10    2.11
   6  13   0   40.74    2.13
  13   6   0   48.61    2.61
 -13  -3   6   15.01    1.69
 -13   6   3   18.99    1.37
  -6  -3  13   17.81    1.66
   3   6 -13   14.92    1.68
   6   3 -13   18.87    1.72
 -13  -4   6   12.34    1.56
 -13   4   6   12.76    1.46
  -6 -13  -4   12.42    1.31
  -6  -4  13   12.77    1.42
  -4   6  13    9.60    0.96
   4  13  -6   13.41    1.59
  13   4  -6    9.73    1.52
 -13   6   5   11.89    1.25
  -6 -13  -5    7.71    1.10
  -6 -13   5   12.56    1.37
  -6   5  13   10.66    1.19
  -5 -13  -6    6.24    0.92
   5   6 -13   11.82    1.65
  13  -6  -5   10.81    1.19
  13   6  -5    5.04    1.47
  -6 -13   6   35.67    2.37
   6  -6 -13   33.48    1.76
   6   6 -13   32.90    2.21
   6  13  -6   40.79    2.48
 -11 -13  -6    8.95    1.33
 -11 -13   6    7.04    1.67
  -6  11  13    8.20    0.91
   6 -11 -13    8.27    0.86
   6  11 -13   11.24    1.61
  11  -6 -13    9.07    1.20
  13   6 -11    3.92    1.27
 -13  12   6    4.35    0.78
 -12 -13  -6    3.42    1.12
 -12  -6  13    1.42    1.22
 -12   6  13    5.07    1.03
 -12  13   6    3.84    0.72
   6  12 -13    3.48    1.41
   6  13 -12    5.32    1.47
  12   6 -13    5.71    1.41
  13   6 -12    7.27    1.56
  13  12  -6    4.28    1.54
 -13  -2   5   17.21    1.59
  -5   2  13   21.52    1.55
   5  13  -2   21.84    1.60
 -13  -5  -1   10.83    1.41
  -5  -1  13   13.54    1.38
  -1  -5  13   11.31    1.46
   1 -13   5   13.62    1.30
   1  13   5   11.17    0.89
   5  -1 -13   13.54    1.41
   5  13   1    9.71    1.24
 -13   0   5   59.44    2.58
  13   5   0   59.81    2.62
 -13   5   3   43.09    1.98
  -5 -13   3   44.62    2.26
  -3 -13   5   46.36    2.31
  -3  -5  13   48.73    2.47
  -3  13  -5   40.66    1.86
  -3  13   5   43.93    1.20
   3 -13  -5   44.12    1.20
   3  13  -5   52.67    2.48
   5   3 -13   46.06    2.35
   5  13   3   47.10    1.97
 -13  -5   4  130.10    4.40
 -13  -4   5  127.90    4.25
   5  13  -4  136.00    4.28
   5   5 -13   48.89    2.47
 -13  -5  13   48.62    3.05
  -1 -13  -4   45.36    1.76
   1 -13  -4   46.62    1.50
   1   4 -13   41.50    2.17
 -13  -4   0  157.40    4.66
  -4 -13   0  146.30    4.18
  -2 -13   4   36.01    1.93
  -2  13   4   28.55    1.09
   2  13   4   32.78    1.48
 -13  -4   4    5.12    1.33
  -4 -13   4    7.01    1.54
  13   4  -4    2.38    1.28
   1 -13   3    1.65    0.81
  13   3   1    1.13    1.12
 -13   0   3   32.29    1.88
  -3 -13   0   28.77    1.68
  -3   0  13   32.48    1.88
   0  13   3   33.56    1.36
  -3  13   2   68.35    1.93
  -2 -13   3   69.24    2.68
  -2  13   3   69.57    1.97
   2   3 -13   79.70    3.06
  13  -2  -3   80.79    2.92
 -13   3   4   27.57    1.75
  13  -3  -4   28.25    1.71
 -13   0   2   56.09    2.46
   0 -13  -2   47.87    1.73
  -2 -13  -1   49.65    2.02
  -1  13  -2   46.62    1.91
   1 -13  -2   54.65    1.80
   2 -13   1   48.96    1.83
 -13   0   1   49.88    2.29
   0  13  -1   50.88    2.03
  13   0  -1   55.79    2.32
  13   1   0   52.56    2.27
 -13  -1   1    8.29    1.28
  -1 -13  -1    8.66    1.05
 -13   0  12    2.92    1.17
  13   0 -12    1.72    1.15
 -13   3   3   70.61    2.66
  -3 -13  -3   60.32    2.20
   3   3 -13   68.01    2.72
 -13  13   6    2.18    0.69
  13  13  -6    2.68    1.33
 -13   7  12    8.01    1.14
 -12   7  13    6.84    1.10
   7  13 -12    4.70    1.29
  12   7 -13    9.18    1.68
  12  13  -7    7.23    1.39
  13  -7 -12    3.02    0.93
   7  13 -13    0.01    1.21
  13  13  -7    5.04    1.64
 -13   8  11   24.80    1.65
   8  11 -13   20.29    2.09
  11  13  -8   24.17    2.11
 -13   8  12    5.10    1.09
 -12   8  13    3.35    0.92
  -8  12  13    3.12    0.67
  -8  13  12    5.02    0.80
   8  12 -13    2.13    1.35
   8  13 -12    3.26    1.42
  12   8 -13    3.79    1.50
  12  13  -8    5.68    1.55
  13  12  -8    2.93    1.32
  -9   9  13   20.81    1.38
 -10   9  13    1.36    0.75
 -10  13   9    1.79    0.59
   9 -10 -13    1.42    0.89
   9  10 -13    2.03    1.39
   9  13 -10    3.28    1.34
  10  13  -9    1.94    1.29
  13  -9 -10    0.02    0.66
  13  10  -9    2.10    1.21
 -13   9  11   21.25    1.51
  -9  13  11   18.39    1.09
  11  -9 -13   17.28    1.36
  11  13  -9   21.35    2.11
  13 -11  -9   22.70    1.56
 -10  10  13   27.33    1.61
  10  13 -10   23.64    2.28
 -13  10  11    1.26    0.71
 -13  11  10    1.32    0.70
 -10  11  13    2.18    0.83
  11  10 -13    2.77    1.43
  -5 -12  12    3.61    1.30
   5  12 -12    4.26    1.33
  12  12   5    2.41    1.03
 -12 -12  -4    5.56    1.25
 -12 -12   4    5.64    1.30
  12  12   4    6.26    1.29
   2  12 -12    6.22    1.45
  -1 -12  12   17.92    1.68
  -1  12 -12   24.59    1.92
  12  -1 -12   23.02    1.98
  12   1 -12   22.04    1.94
  12  12  -1   21.70    1.92
  12  12   1   20.46    1.85
 -12 -11   5    2.69    1.37
 -12  -5  11    1.57    1.06
 -11 -12  -5    6.15    1.25
  -5 -11  12    2.20    1.30
   5  11 -12    4.20    1.39
   5  12 -11    0.99    1.34
  11  -5 -12    2.58    1.03
  11   5 -12    5.34    1.38
  11  12  -5    4.41    1.45
  11  12   5    2.63    1.15
  12  -5 -11    5.89    1.18
  12   5 -11    5.60    1.43
  12  11  -5    5.55    1.64
  -4 -11  12   86.00    3.55
   4  11 -12   88.92    3.70
   4  12 -11   78.38    3.49
 -11 -12  -3    1.49    1.07
  11  12  -3    5.08    1.42
  11  12   3    1.88    1.05
  12   3 -11    2.46    1.25
 -12  -2  11    6.84    1.39
 -11 -12  -2    7.30    1.29
 -11 -12   2   10.36    1.60
 -11  -2  12    5.83    1.27
 -11   2  12    5.65    1.15
  -2 -11  12    9.53    1.48
  11   2 -12    6.14    1.32
  11  12   2    6.07    1.26
  12  -2 -11    6.28    1.22
 -12 -11   1   27.68    2.16
 -12  -1  11   22.01    1.91
 -11  -1  12   24.64    1.92
  -1  12 -11   28.96    2.01
  11  -1 -12   27.24    1.98
  12  -1 -11   26.95    1.87
  12  11   1   24.52    1.93
 -12  -6  11    6.27    1.44
 -12   6  11    8.49    1.25
 -12  11   6    3.57    0.80
 -11 -12  -6    7.62    1.30
 -11  -6  12    5.30    1.48
  -6 -12  11    4.17    1.29
  -6 -11  12    7.20    1.48
   6 -12 -11    5.00    0.67
  11  -6 -12    3.00    0.97
  11   6 -12    5.79    1.60
  12 -11  -6    4.53    0.78
  12  -6 -11    7.30    1.15
 -11 -12   7   54.63    3.01
 -11  -7  12   54.90    3.02
  -7 -11  12   42.88    2.83
   7  11 -12   54.14    3.00
 -10 -12  -4   89.99    3.20
   4  10 -12   78.71    3.43
  10  12  -3    2.00    1.16
  10  12   3    3.41    1.10
 -10 -12  -2    5.04    1.27
 -10 -12   2    8.37    1.53
  -2 -10  12    6.45    1.35
  -2  12 -10   11.47    1.34
   2  10 -12    7.09    1.41
  10  -2 -12   11.33    1.39
  10  12  -2    6.91    1.45
  10  12   2    9.23    1.37
  12  10  -2    7.04    1.39
 -12   1  10   41.00    2.29
   1  10 -12   37.56    2.34
   1  12 -10   48.18    2.55
 -12   0  10   15.98    1.54
 -10 -12   0    9.64    1.47
  10   0 -12   11.64    1.34
  10  12   0   12.06    1.49
  12   0 -10   15.66    1.63
  12  10   0   16.23    1.71
 -12 -10   5   61.33    3.09
 -12   5  10   63.85    2.64
 -12  10   5   64.25    2.29
  10  12  -5   72.46    3.29
  12   5 -10   71.17    3.26
 -10 -12   6   88.36    3.62
  -6 -12  10   94.48    3.80
   6 -12 -10   86.47    2.31
   6  12 -10   85.12    3.68
  10  -6 -12   82.96    3.00
 -12 -10   7   34.25    2.42
  -7 -10  12   29.13    2.23
  12  -7 -10   38.24    1.99
  12  10  -7   38.53    2.54
 -12 -10   8   24.99    2.15
 -10 -12   8   20.29    2.09
  -8 -10  12   23.37    2.12
   8  10 -12   23.46    2.17
  12 -10  -8   17.52    1.25
 -12  -4   9   29.35    2.15
   4   9 -12   28.12    2.17
 -12  -9  -3   22.95    1.81
  -9 -12  -3   33.20    1.91
  -3  -9  12   30.83    2.26
 -12  -9   2  188.20    5.77
  -9 -12  -2  186.80    5.30
   9   2 -12  162.30    5.17
   9  12   2  172.40    4.95
  12  -2  -9  170.40    5.01
 -12   1   9   43.88    2.35
  -9  -1  12   43.69    2.44
   1 -12   9   41.63    2.19
   1  12  -9   47.48    2.41
   9   1 -12   38.92    2.30
  12   9   1   39.44    2.38
 -12  -9   0   28.08    2.03
  -9   0  12   31.32    2.08
   0   9 -12   27.21    2.00
  -9   5  12    2.16    0.89
  -5 -12   9    2.10    1.21
  12  -9  -5    1.92    0.72
  12   9  -5    4.39    1.38
 -12  -9   6   10.54    1.76
 -12  -6   9    5.75    1.39
  -9 -12   6   10.76    1.55
  -9   6  12    7.35    1.10
  -6 -12   9   11.88    1.68
  -6  -9  12    9.68    1.52
  -6   9  12    9.12    0.98
  12  -9  -6    8.65    1.01
  12  -6  -9    9.86    1.22
  12   6  -9    4.26    1.42
 -12  -9   7   14.96    1.85
 -12   7   9   17.58    1.41
  -9 -12   7   19.13    1.99
  -9  -7  12   11.20    1.64
  -9   7  12   11.63    1.22
  12  -7  -9   13.71    1.22
  12   7  -9   20.10    1.95
 -12   9   8   75.05    2.61
  -9  -8  12   80.54    3.63
  -9   8  12   81.55    2.79
  -8   9  12   80.97    2.63
   8  -9 -12   84.34    2.76
   8  12  -9   72.01    3.38
   9 -12  -8   87.03    2.41
  -9  -9  12   62.63    3.20
   9  12  -9   62.62    3.35
  12  -9  -9   56.53    2.30
 -12  -9  10    0.99    1.18
 -10  12   9    1.83    0.65
  12  -9 -10    2.71    0.77
  12   9 -10    3.03    1.39
 -12  -8  -3    2.17    1.29
 -12  -3   8    4.59    1.29
  -3  -8  12    2.55    1.34
   8  12   3    6.39    1.18
  12   8   3    6.72    1.46
 -12   2   8   84.74    3.19
  -2  -8  12   83.77    3.22
   8   2 -12   88.46    3.41
   8  12  -2   86.39    3.36
  -8   1  12  201.60    5.57
  -1 -12   8  208.40    5.76
   1  12  -8  205.30    5.67
  12  -1  -8  191.10    5.35
 -12  -8   0    4.82    1.41
   0  12  -8    2.91    1.18
  12   8   0   -1.07    1.22
 -12  -4   8   89.00    3.58
 -12   4   8   87.00    3.13
   4  12  -8   78.38    3.23
 -12  -8   5   73.39    3.37
 -12   5   8   88.02    3.08
   5   8 -12   70.37    3.22
   8   5 -12   71.62    3.25
  12   8  -5   87.88    3.62
 -12  -8   6    2.93    1.40
 -12   6   8    2.50    0.94
 -12   8   6    5.60    0.95
  -8 -12   6    7.55    1.55
  -8  -6  12    1.68    1.17
  -8   6  12    2.70    0.89
  -6  -8  12    0.38    0.94
  -6   8  12    2.34    0.80
   6   8 -12    3.18    1.28
   8  -6 -12    4.97    1.01
   8   6 -12    3.63    1.51
  12   8  -6    4.97    1.42
 -12  -7   8   34.60    2.23
 -12   7   8   32.55    1.74
  -8  -7  12   40.45    2.55
  -8  12   7   38.59    1.33
  -7  -8  12   39.75    2.43
   7   8 -12   42.01    2.56
  12  -7  -8   30.96    1.66
  12   7  -8   41.50    2.60
  -8  -8  12   21.95    2.11
  -8   8  12   29.38    1.50
   8 -12  -8   26.73    1.09
 -11  -8  12    4.05    1.49
  11   8 -12    6.97    1.62
  12  11  -8    5.46    1.48
 -12  -7   3   11.14    1.65
 -12   3   7   14.76    1.43
  -3  -7  12   10.65    1.59
   3   7 -12   10.49    1.58
  12   7  -3   16.08    1.88
 -12  -7  -2    2.57    1.17
 -12  -2   7    2.36    1.14
  -7  -2  12    4.35    1.21
  -2  12  -7    4.28    1.03
   7  -2 -12    0.55    1.01
   7  12  -2    3.44    1.22
   7  12   2    2.06    1.01
  12   2  -7    4.47    1.27
  12   7   2    5.29    1.29
  -1  -7  12   13.12    1.58
  -7 -12   0  206.00    5.68
   7  12   0  234.60    6.23
  12   7   0  221.80    6.19
   4  -7 -12   34.33    1.61
   7   4 -12   30.33    2.10
 -12  -5   7   91.05    3.69
 -12   7   5   77.46    2.66
  -7   5  12   80.33    2.77
  -5  -7  12   83.28    3.37
   5   7 -12   79.46    3.35
   7   5 -12   83.51    3.50
  -6  12   7  126.70    2.83
   7 -12  -6  130.30    2.91
   7  12  -6  149.00    4.79
 -12   7   7    0.73    0.83
  -7   7  12    4.47    0.87
  12   7  -7    1.19    1.09
 -12  -7  12   21.99    2.26
  12 -12  -7   25.76    1.29
 -12   2   6   27.88    1.83
  -6  -2  12   25.27    1.84
   2  12  -6   22.60    1.63
   6   2 -12   22.76    1.71
  -6 -12   1  153.60    4.51
  -6   1  12  136.30    4.13
   1  12  -6  148.30    4.31
   6  -1 -12  150.10    4.42
  12  -1  -6  135.40    4.17
  12   6   1  155.70    4.72
 -12  -6   0   91.82    3.42
   0 -12   6   79.20    2.83
 -12  -6   3    6.44    1.42
 -12   3   6    6.83    1.14
  -6  -3  12    5.97    1.31
  -6   3  12   10.63    1.19
  -3 -12   6    9.81    1.35
   3   6 -12   11.19    1.56
   6   3 -12   10.29    1.30
  12   6  -3    6.18    1.40
  -6 -12  -4   55.68    2.26
  -6  -4  12   55.63    2.62
  -4 -12   6   57.18    2.67
  12   6  -4   68.47    3.10
 -12   6   5    8.07    1.10
   6   5 -12   12.89    1.73
   6  12   5    8.26    1.16
 -12  -6   6   52.33    2.66
  -6  12   6   48.32    1.22
   6  12 -12   28.80    2.41
 -12   2   5   37.83    2.01
  -2 -12  -5   37.07    1.44
   2   5 -12   36.17    2.01
 -12  -5   1   26.71    1.91
  -5 -12  -1   28.23    1.54
  -5  -1  12   37.14    1.97
  -1 -12  -5   31.25    1.25
   5   1 -12   35.48    1.98
 -12  -5   0    0.65    1.16
   5   0 -12    1.75    0.98
  12   0  -5    3.64    1.08
  12   5   0    2.98    1.21
 -12  -5   3   52.70    2.62
  -5 -12  -3   56.39    2.07
  -5 -12   3   57.02    2.48
  -5  -3  12   59.62    2.61
  -3 -12  -5   50.82    1.85
 -12  -4   5   27.73    2.05
  -5 -12   4   29.30    1.83
   5   4 -12   27.75    1.89
 -12   5   5  113.00    3.47
   5   5 -12  110.60    3.88
  12  -5  -5  125.20    3.74
 -12  -4  -1   97.50    3.41
   1 -12  -4  108.80    2.68
   1 -12   4  109.90    3.31
   1  12   4  107.50    2.83
   4  -1 -12  110.20    3.46
   4  12   1  108.60    3.34
  12   4   1  101.80    3.47
   4  12   0  136.80    3.95
 -12  -2   4    9.11    1.33
   2  12  -4    5.45    1.11
   4  12   2    6.47    1.16
 -12   3   4   74.29    2.82
  -4  12   3   70.71    1.75
  -3 -12   4   74.22    2.90
   3  -4 -12   77.03    2.58
   4  12  -3   74.47    2.85
  12  -4  -3   64.82    2.37
 -12   4   4    3.16    0.93
   4   4 -12    4.59    1.30
  12  -4  -4    8.51    1.13
 -12  -3   1   13.62    1.56
  -3 -12   1   19.94    1.45
   1   3 -12   15.65    1.51
   1  12  -3   16.92    1.33
   1  12   3   18.26    1.17
   3 -12  -1   18.35    0.89
   3  12   1   20.71    1.38
   0 -12   3   47.33    1.97
  12   3   0   47.30    2.30
 -12  -3   2   17.30    1.59
  -3 -12   2   11.58    1.33
  12  -3  -2   15.77    1.33
  12  -2  -3   15.55    1.38
  12   2  -3   11.94    1.35
  -2   0  12   69.39    2.49
   2  12   0   71.60    2.46
   2  12   1  114.70    3.29
  12   0  -1  107.00    3.32
 -12   0  12   52.65    2.87
 -12   3   3   50.64    2.14
 -12  12   8   26.98    1.45
   8  12 -12   29.67    2.36
  12  -8 -12   31.39    1.85
   9 -12 -11    3.75    0.80
  11   9 -12    5.71    1.52
  11  12  -9    5.25    1.50
  12 -11  -9    5.79    0.83
  12   9 -11    6.12    1.60
 -12   9  12   16.58    1.43
 -12  12   9   16.07    1.15
  12  -9 -12   11.83    1.20
  12  12  -9   11.32    1.79
 -12  10  10   14.23    1.22
  10 -10 -12   14.05    1.17
  12 -10 -10   19.14    1.44
  12  10 -10   15.46    1.87
  10  12 -11   21.57    2.12
  11  10 -12   17.98    2.06
  12 -10 -11   18.05    1.32
  12  10 -11   20.72    1.96
  12  11 -10   16.95    2.00
 -11  11  12    4.74    0.88
  11  11 -12    2.35    1.34
  11  12 -11    5.04    1.81
  12  11 -11    6.03    1.60
 -11 -11   5  386.60   10.01
  11  -5 -11  390.00    9.26
 -11 -11  -4    1.62    1.16
 -11 -11   4    1.65    1.27
   4  11 -11    3.58    1.41
  11  -4 -11    4.53    1.23
  11  11   4    0.99    1.04
 -11 -11  -2   18.40    1.74
  -2 -11  11   14.56    1.62
 -11  -1  11   49.11    2.67
  11   1 -11   58.24    2.84
 -11 -11   6  243.90    7.26
 -11  11   6  262.30    6.14
  -6 -11  11  242.20    7.12
   6  11 -11  252.60    7.28
  11  11  -6  252.50    7.43
   7  11 -11    3.96    1.43
 -11  11   8   46.51    1.82
  -8 -11  11   45.27    2.72
  11   8 -11   50.38    3.01
 -11   3  10   28.52    1.89
 -10  -3  11   26.83    2.01
 -10   3  11   32.62    1.93
  -3 -11  10   32.80    2.09
  10   3 -11   25.31    1.93
  11  -3 -10   23.79    1.80
 -10  -2  11   34.02    2.12
  10  11   2   33.13    2.02
  11   2 -10   40.58    2.34
  11  10  -2   39.68    2.52
 -11 -10  -1   40.13    2.30
  -1 -10  11   32.35    2.04
  -1  11 -10   29.41    1.99
   1  10 -11   30.05    2.06
  10   1 -11   35.12    2.12
  10  11  -1   28.98    2.13
  11  10   1   28.79    1.96
 -11 -10   5   15.05    1.82
 -10  -5  11   11.70    1.78
 -10   5  11   12.45    1.25
  -5 -11  10   15.77    1.76
  -5  10  11   15.69    1.00
  11  -5 -10   16.19    1.45
  11  10  -5   16.94    1.95
 -11  -6  10   17.02    1.83
 -10 -11   6   22.38    1.97
 -10  -6  11   13.72    1.83
 -10  11   6   16.52    1.02
  10  -6 -11   17.41    1.42
  11   6 -10   20.43    1.83
 -11 -10   7   14.60    1.73
 -10 -11   7   14.40    1.75
 -10  -7  11   24.61    2.17
 -10   7  11   15.52    1.25
  -7 -11  10   16.30    1.90
   7  10 -11   14.38    1.87
   7  11 -10   18.43    1.95
  10  -7 -11   15.53    1.29
  11  10  -7   21.04    1.92
 -11  10   8    2.07    0.78
 -10 -11   8    4.77    1.49
  -8 -10  11    4.38    1.46
  -8  11  10    4.31    0.76
   8 -10 -11    3.96    0.84
   8  10 -11    3.14    1.43
  11 -10  -8    2.87    0.73
 -11 -10   9   18.16    2.01
 -11   9  10   13.98    1.19
 -10   9  11   15.38    1.17
   9  11 -10   14.20    1.94
  10  -9 -11   12.79    1.12
  11 -10  -9   14.66    1.14
 -11 -10  10    0.54    1.22
 -11  10  10    3.21    0.82
 -10 -10  11    5.98    1.59
  10  10 -11    2.42    1.43
  11  10 -10   -0.61    1.14
  11   9  -3   28.37    2.22
  11   9   3   34.86    2.00
 -11  -9  -2   19.50    1.72
 -11  -2   9   17.05    1.67
  -9 -11   2   16.56    1.60
  -2 -11   9   22.68    1.75
   2  11  -9   20.26    1.72
   9  11  -2   17.03    1.73
 -11  -9  -1   37.61    2.25
 -11  -9   1   28.43    2.01
 -11  -1   9   27.99    1.86
  -1 -11   9   37.64    2.14
  -1   9 -11   38.58    2.14
  11  -1  -9   33.67    1.97
 -11  -5   9   17.69    1.74
 -11   5   9   17.86    1.42
  -9  11   5   21.16    1.03
  -5 -11   9   17.51    1.77
  -5   9  11   18.85    1.13
   5  11  -9   16.90    1.91
  11  -5  -9   21.25    1.54
  11   5  -9   24.40    2.00
  11   9  -5   14.50    1.77
 -11  -9   6    6.45    1.48
 -11   9   6    4.79    0.85
  -6  -9  11    7.31    1.58
   6  11  -9   10.20    1.70
  11  -9  -6    6.72    0.90
  11   9  -6    6.63    1.61
  -9 -11   7   48.19    2.71
  -7  -9  11   38.24    2.48
  11  -7  -9   45.81    2.05
  11   9  -7   40.28    2.58
  -9  11   8   11.89    0.92
  -8  11   9   12.76    0.86
   9  -8 -11   11.16    1.11
  11  -8  -9   11.72    1.10
  -9 -11   9   26.83    2.30
   9 -11  -9   32.10    1.53
   9  11  -9   23.63    2.26
 -11  -8   3  117.40    4.28
   8  -3 -11  108.40    3.55
  11  -3  -8  111.90    3.62
  11   8  -3  104.80    3.90
 -11  -2   8   50.37    2.46
  -8 -11  -2   47.82    2.24
   2  11  -8   44.27    2.29
  11   2  -8   51.02    2.52
  11   8  -2   42.17    2.35
  11   8   2   49.02    2.46
 -11  -8  -1   26.35    1.87
 -11  -1   8   31.80    1.97
  -8  -1  11   27.34    1.89
  -8   1  11   22.78    1.73
  -1 -11   8   26.12    1.76
   1  11  -8   21.90    1.72
   8  -1 -11   32.06    1.98
 -11  -8   0   45.39    2.32
  -8   0  11   51.48    2.40
 -11  -4   8    9.11    1.47
  -8 -11  -4    6.85    1.07
  -8  -4  11    8.40    1.57
  -4 -11   8   11.55    1.56
  -4  -8  11   11.10    1.44
   4   8 -11    4.72    1.49
   4  11  -8    8.43    1.50
   8   4 -11    9.07    1.54
   8  11   4    6.80    1.13
  11  -4  -8    8.02    1.15
  11   8  -4    6.82    1.57
  -8 -11   5   92.75    3.56
  -5 -11   8   85.55    3.23
   5  11  -8   87.44    3.59
  -8  -6  11   34.30    2.21
   6 -11  -8   30.10    1.12
   8 -11  -6   29.56    1.14
 -11  -8   7    8.66    1.61
  -8 -11   7    6.67    1.45
  -7  -8  11    6.87    1.55
   7  -8 -11    5.11    0.88
   7   8 -11    5.80    1.50
   8  11  -7    5.22    1.45
  11  -8  -7    5.06    0.91
  11  -7  -8    6.90    1.03
  11   7  -8    6.32    1.50
   8 -11  -8   49.57    1.64
  11   8  -8   47.58    2.59
  -7 -11  -3   12.66    1.30
  -7 -11   3   14.36    1.58
 -11   2   7   38.45    2.07
 -11  -7  -1   21.08    1.77
  -7 -11  -1   19.91    1.69
  -1 -11   7   18.55    1.57
   1  11  -7   27.25    1.76
   7  -1 -11   25.81    1.75
 -11   0   7    8.91    1.38
  -7 -11   0    5.47    1.18
   0  11  -7   10.49    1.17
   7   0 -11    9.84    1.36
  11   7   0   10.25    1.56
   4  -7 -11   82.74    2.52
   4  11  -7   86.35    3.33
  11   7  -4   86.11    3.49
 -11   5   7    4.62    0.97
 -11   7   5    4.32    0.92
   7  11  -5    3.58    1.28
  -7 -11   6    6.46    1.45
   6 -11  -7    8.44    0.68
   7  11  -6    7.59    1.52
  11  -7  -6   10.48    1.12
  11  -6  -7   10.54    1.11
  11  -7  -7    1.69    0.84
 -11  -2   6    0.96    1.06
 -11   2   6    2.46    1.03
  -2  -6  11    4.38    1.22
  -2  11  -6    3.12    1.03
   6  -2 -11    2.33    1.00
   6  11  -2    2.80    1.11
 -11  -6   1   17.45    1.68
  -6 -11  -1   25.42    1.74
  -6   1  11   22.33    1.56
   6  11  -1   25.66    1.69
  11   6  -1   22.03    1.75
   0 -11   6  453.70   10.42
  -6   3  11   41.76    1.90
   3  11  -6   47.04    2.33
   6  -3 -11   45.43    2.01
  -4 -11   6   59.44    2.69
  -4   6  11   52.45    1.89
   6  -4 -11   52.18    2.13
   6   4 -11   60.43    2.72
   6  11   4   59.92    2.34
  11   4  -6   61.19    2.78
  11   6  -4   49.83    2.58
 -11  -6   5  238.60    6.56
   6   5 -11  256.80    6.86
  11   6  -5  243.30    6.62
  -6   6  11   49.08    1.92
   6 -11  -6   44.15    1.21
   5  -2 -11   68.63    2.50
  -5 -11   1   36.73    1.99
  -5  -1  11   35.55    1.90
  -5   1  11   28.82    1.72
   1 -11   5   29.13    1.65
   1  11  -5   27.29    1.76
  11   5   1   29.16    1.99
  11   5   0  469.40   11.07
   5   3 -11   46.68    2.32
   5  11  -3   45.93    2.19
  11   3  -5   51.37    2.42
  11   4  -5   26.72    1.99
  11  -5  -5  561.50   12.38
 -11  -4   1  234.10    6.32
 -11  -1   4  252.00    6.49
  -1 -11  -4  266.70    5.97
  11   4  -1  259.90    6.72
  11   4   1  253.20    6.47
 -11  -4   0   42.19    2.29
  11   4   0   41.54    2.16
 -11   3   4   25.25    1.49
  -3  -4  11   26.32    1.78
   3   4 -11   23.86    1.78
   3  11   4   20.89    1.18
   4   3 -11   22.77    1.70
   4  11   3   17.66    1.26
   4  11   4  158.10    4.09
  -1  -3  11   84.96    2.83
   1  11  -3   86.05    2.81
 -11  -3   0  144.70    4.12
 -11   0   3  155.00    4.42
  -3 -11  -2   48.68    1.89
   2 -11  -3   45.77    1.35
   2  11  -3   49.08    2.11
   3  11   2   49.62    1.94
  11   3  -2   44.40    2.28
 -11  -3   3    8.30    1.36
  -3  11   3    7.02    0.54
   3  -3 -11    5.41    1.08
   3   3 -11    6.85    1.33
  11  -3  -3    9.58    1.13
  11   0  -2    5.15    1.17
   1  11   2    2.90    0.76
   2 -11   1    3.27    0.75
   2   1 -11    4.75    1.31
  -2 -11  -2  122.70    3.35
  -2  11  -2  130.60    3.42
 -11   2   4  136.60    4.08
   2  11  -4  131.50    3.89
   0 -11   1   49.59    1.86
 -10 -11   0  125.50    4.17
  11   0 -10  121.10    4.15
  11   0 -11  611.70   14.10
  10  11 -11   30.77    2.52
  11 -11 -10   31.10    1.54
  11  11 -11  330.60    9.29
  10  10  -5   10.76    1.74
 -10 -10   4   13.63    1.61
 -10 -10  -2   13.38    1.46
  10  10   2   13.10    1.54
 -10 -10  -1  113.40    3.77
 -10 -10   1  119.60    4.10
 -10  -1  10  114.60    3.92
 -10   1  10  113.10    3.80
 -10 -10   6   36.56    2.41
   6 -10 -10   35.41    1.39
  10   6 -10   32.36    2.33
 -10   7  10    7.65    1.13
 -10  10   7    4.59    0.76
  -7  10  10    4.23    0.67
   7 -10 -10    4.83    0.75
   7  10 -10    3.49    1.44
  10  10  -8    7.74    1.59
 -10 -10   9    1.89    1.21
 -10  10   9    4.68    0.75
   9  10 -10    3.63    1.41
  10  10  -9    0.13    1.17
 -10 -10  10   10.26    1.95
 -10  10  10    8.15    1.09
  10 -10 -10    6.63    0.98
  10  10 -10    7.53    1.79
   4   9 -10    4.52    1.46
 -10  -9   3   51.50    2.56
  -9 -10   3   42.44    2.36
  -9  -3  10   51.10    2.56
  -9   3  10   45.84    2.11
  -3  -9  10   50.89    2.57
  10   9  -3   41.51    2.50
 -10  -9  -2    1.59    1.09
  -2  -9  10    1.70    1.10
   2  10  -9    4.22    1.26
 -10  -9  -1   63.52    2.63
  -9   1  10   63.93    2.59
   1  10  -9   54.29    2.52
   9   1 -10   59.80    2.57
  10  -1  -9   64.87    2.67
  10   9   1   51.71    2.46
  -9   5  10   48.66    2.06
  10   9  -5   60.49    2.89
 -10  -9   6    2.38    1.41
  -6 -10   9    2.93    1.31
   9  -6 -10    3.13    0.97
 -10   7   9   12.21    1.15
 -10   9   7    9.22    0.97
  -9   7  10    6.12    0.92
  10  -7  -9   12.31    1.21
 -10   8   9    4.69    0.81
  -9 -10   8    0.48    1.19
  -8   9  10    3.96    0.80
  -8  10   9    4.56    0.70
   8  10  -9    5.97    1.58
   9  10  -8    5.44    1.53
  10  -8  -9    2.66    0.77
 -10   9   9    2.95    0.79
   9   9 -10    3.25    1.42
 -10  -8   3    4.98    1.47
  -8 -10   3    4.94    1.40
  -3 -10   8    4.49    1.28
   8  10  -3    1.56    1.26
 -10  -8   2   19.21    1.81
 -10   2   8   18.91    1.50
  -2  -8  10   17.86    1.72
   2   8 -10   21.38    1.76
   2  10  -8   21.25    1.74
  10  -2  -8   20.21    1.52
   8  10   1    3.81    1.14
   0  10  -8   53.36    2.37
   8  10   0   52.39    2.40
  10   8   0   53.44    2.55
  -4 -10   8   95.03    3.47
   4   8 -10   98.24    3.74
   4  10  -8   95.98    3.65
   5  -8 -10   52.90    1.82
   5   8 -10   58.54    2.88
   5  10  -8   60.26    2.96
  10  -8  -5   56.35    1.96
  10  -5  -8   61.24    2.41
  10   8  -5   60.08    3.00
 -10   6   8   59.67    2.25
  -8 -10   6   52.98    2.64
  10   8  -6   61.98    2.98
   7   8 -10    1.75    1.33
 -10  -8   8   21.05    1.94
  -8 -10   8   19.70    1.94
  10   8  -8   20.96    1.74
  -7 -10  -3  250.10    6.22
  -3 -10   7  220.60    5.95
   7  -3 -10  248.50    6.24
  10  -3  -7  235.70    6.00
  10   7  -3  255.80    6.88
 -10  -7  -2   13.60    1.50
  -7 -10   2    9.50    1.37
   2  10  -7   15.29    1.56
  10   2  -7    9.28    1.42
  10   7   2    7.95    1.38
   7  10  -1   98.18    3.41
 -10   0   7   35.47    2.02
   0  -7  10   36.46    2.03
   7  10   0   41.84    2.16
 -10  -4   7   19.09    1.77
  -7   4  10   14.07    1.32
   7  10  -4   19.88    1.69
  10  -7  -4   16.97    1.10
  -5 -10   7   42.38    2.30
   5  10  -7   44.66    2.36
   7  -5 -10   50.05    2.06
  -7  -6  10   18.09    1.85
   7   6 -10   18.50    1.72
 -10   7   7    9.87    1.07
   7 -10  -7   12.62    0.81
  10  -7  -7   15.12    1.09
 -10  -2   6   24.07    1.81
  -6 -10   2   14.75    1.51
  -6  -2  10   18.28    1.58
  -6   2  10   16.51    1.28
  10  -2  -6   18.26    1.51
  10   6  -2   21.48    1.86
  10   6   2   16.65    1.66
 -10  -6   0  424.40   10.13
 -10   0   6  427.50   10.02
  -6   0  10  428.50   10.00
   6   0 -10  461.70   10.66
  10   0  -6  409.50    9.60
  10   6   0  435.60   10.28
   6  10  -3    5.13    1.21
 -10   4   6   91.44    2.94
  -6   4  10   85.13    2.76
  -4 -10   6   83.72    3.18
   4 -10  -6   91.01    2.04
   6   4 -10   87.22    3.26
   6  10  -4   91.65    3.33
 -10  -6   5   21.22    1.87
  10   5  -6   17.82    1.85
  10   6  -5   21.87    1.88
  10   6  -6   57.83    2.72
  -5   2  10    3.36    0.90
  -5 -10  -1   31.06    1.75
  -5 -10   1   29.44    1.83
  -1  10  -5   26.02    1.55
 -10   0   5   91.44    3.12
  -5 -10   0   89.17    2.97
 -10   3   5   60.30    2.32
  -5 -10   3   63.41    2.60
  -3  -5  10   66.86    2.81
   3   5 -10   53.90    2.55
   5  -3 -10   53.96    2.12
 -10   4   5  101.20    3.14
 -10   5   4  103.00    3.06
  -5 -10  -4  105.20    2.96
   5  -5 -10    2.08    0.89
 -10  -4   1   10.42    1.66
 -10  -1   4   18.47    1.59
 -10   1   4   13.59    1.43
  -1  10   4   13.56    0.69
   1 -10   4   17.90    1.24
   4  10  -1   12.34    1.37
  10   4  -1   12.59    1.59
  10   0  -4   10.29    1.36
 -10   4   3   37.92    1.74
  -4 -10  -3   33.32    1.62
  10   4  -3   35.19    2.16
 -10  -4   4   66.66    2.82
  10   4  -4   67.79    2.93
   3  10   1  461.10   10.20
   0 -10   3  694.20   14.90
   0  10  -3  679.90   14.55
   2  10  -3    5.96    1.22
   3   2 -10    4.30    1.19
   3  10  -2    2.93    1.06
   3   3 -10    4.28    1.13
   2 -10   0   50.59    1.67
   2   0 -10   52.20    2.22
 -10   1   2   86.34    2.86
  -2   1  10   86.14    2.69
   1 -10   2   87.90    2.66
  10  -1  -2   78.02    2.67
  10   1  -2   76.02    2.79
 -10  -2   2  156.50    4.37
  -2  10   2  144.30    3.33
 -10  -2   4    6.17    1.36
  -4  -2  10    3.43    1.27
   2   4 -10    4.90    1.31
   4  -2 -10    5.94    1.20
   4   2 -10   10.96    1.49
   0  10  -1   26.33    1.28
   1  10   0   26.17    1.45
  10   0  -1   33.89    1.84
   1 -10  -1 1005.00   20.69
  -9  -9   4   27.70    2.06
  -4  -9   9   19.28    1.74
   4  -9  -9   26.27    1.15
   4   9  -9   25.80    1.94
  -9  -9  -3    3.53    1.05
  -9  -9   3    1.71    1.21
   9   9  -3    1.76    1.19
  -9  -2   9  178.90    5.24
  -9  -9   1   27.99    1.93
  -1  -9   9   26.11    1.80
   9  -1  -9   27.70    1.91
   9   9  -1   26.93    1.89
   9   9  -5  296.30    7.84
  -7   9   9    3.45    0.76
   9   9  -7    9.41    1.61
   8  -9  -9   57.11    1.96
   8   9  -9   55.57    2.85
   9  -9  -8   55.27    1.95
   9   9  -8   52.57    2.74
  -9   8   4   22.34    1.22
  -4   8   9   18.61    0.99
  -9  -8  -2   17.69    1.64
  -8   2   9   25.68    1.63
  -2  -8   9   23.97    1.88
   8   9   2   19.61    1.62
  -8  -1   9   98.57    3.40
  -8   1   9  105.20    3.41
   1   9  -8  103.10    3.48
  -9  -8   5    5.36    1.38
  -8  -5   9    5.53    1.27
  -8   9   5    3.17    0.64
  -5  -9   8    3.31    1.33
  -5  -8   9    4.00    1.54
  -5   8   9    3.34    0.70
   5   8  -9    6.19    1.45
   5   9  -8    0.67    1.35
   8  -5  -9    5.88    0.99
  -9   8   6   32.63    1.43
   6   8  -9   31.36    2.14
   8  -9  -6   34.79    1.40
   8   6  -9   31.95    2.18
   9  -6  -8   29.83    1.57
  -8   7   9    3.36    0.80
  -8   9   7    2.85    0.72
   7   9  -8    6.12    1.64
   8  -7  -9    4.91    0.87
   8   9  -7    4.58    1.32
  -9  -8   8    8.45    1.55
  -9   8   8   13.87    1.12
  -8  -9   8   13.98    2.17
   8  -8  -9   11.61    1.01
   8   9  -8   17.43    2.32
   9   8  -8   15.60    1.75
  -9   3   7  158.60    4.34
  -7   3   9  155.90    4.28
   3   7  -9  159.40    4.78
  -9  -7  -2   88.92    2.99
  -7  -9   2   99.34    3.47
  -1  -9   7   20.57    1.63
  -9   0   7  416.90    9.69
  -7  -9   4   98.09    3.52
  -4  -9   7   92.66    3.27
   4   9  -7   89.72    3.37
  -7  -9   5   52.91    2.55
  -7  -5   9   64.65    2.81
  -7   5   9   62.35    2.26
  -7  -9   6    4.10    1.31
   9   7  -6    3.81    1.33
  -9  -6   2   42.31    2.35
   9   6  -2   45.03    2.40
   1  -9   6    7.29    1.29
   9   6   1    2.13    1.19
   0   6  -9    6.01    1.43
   9   6   0    6.95    1.48
  -9  -6   3   50.24    2.58
  -3  -9   6   46.89    2.30
   9  -3  -6   51.46    2.09
  -6  -9  -4    7.95    1.06
  -6  -4   9    9.72    1.45
  -4  -9   6   10.32    1.50
   4  -6  -9    8.40    0.92
   4   9  -6   12.78    1.57
   6  -4  -9    8.96    1.13
   6   9  -4   15.26    1.53
   9   6  -4   14.83    1.74
  -9   5   6    8.91    1.08
  -6  -5   9   11.67    1.56
   6  -5  -9   11.99    1.09
  -9  -6   6   26.19    1.98
  -6   6   9   27.01    1.38
   9   6  -6   24.18    1.93
  -9  -2   5   81.46    2.98
  -2  -5   9   86.48    3.11
   9   5  -2   82.27    2.87
  -9  -1   5  219.10    5.75
  -9   1   5  222.40    5.70
  -5  -1   9  220.80    5.62
   9   5  -1  214.20    5.74
  -5  -9   0 1170.00   24.56
  -9  -5   3  340.70    8.47
  -9  -3   5  342.20    8.39
   9   5  -3  355.70    8.67
  -9  -4   5    3.86    1.24
  -9   4   5    5.90    0.99
  -5  -9   4    3.63    1.17
  -5  -4   9    8.52    1.47
   4  -5  -9    2.39    0.83
   5   4  -9    5.79    1.45
   5   9  -4    2.00    1.16
  -9  -4  -1   54.34    2.41
  -4   1   9   52.17    2.07
  -1  -4   9   49.95    2.36
   1  -9  -4   54.38    1.43
   9   4   1   54.52    2.31
  -9  -4   0 1549.00   32.37
  -4  -9   0 1635.00   33.77
   4   0  -9 1625.00   33.66
   9   0  -4 1628.00   33.82
  -9  -4   2  428.60   10.11
   2   9  -4  427.80    9.74
   4   9  -2  448.50   10.19
  -3  -9  -4   19.69    1.37
   4   3  -9   19.78    1.66
   4   9  -3   16.73    1.58
   9   4  -4 1057.00   22.66
  -1   9  -3  179.10    4.47
   3  -1  -9  195.40    4.98
  -3  -9   0  388.00    8.75
  -2   0   9  218.50    5.41
   0   9  -2  227.90    5.43
  -9  -1   2  339.60    8.02
  -2  -9  -1  331.00    7.47
  -1  -9  -2  332.20    7.30
   1   9  -2  366.80    8.33
   2   9   1  339.50    7.57
  -3   9   2   26.97    0.91
   3   9  -2   27.26    1.75
  -1  -9   0  149.20    3.80
   9   0  -1  148.70    4.04
   1  -9   1  147.70    3.67
   9   1  -1  151.00    4.13
  -8   0   9    5.83    1.20
   8   0  -9    7.00    1.26
   9   8   0    6.25    1.31
   8   3  -8 1266.00   26.95
   8   2  -8  430.30   10.08
   8   8  -1   14.32    1.70
   8   8   1    6.41    1.28
  -8  -8   6    5.48    1.49
  -2  -7   8   23.63    1.85
   1   8  -7   12.51    1.58
   7   1  -8   11.80    1.50
   7   8  -1    9.79    1.42
  -8  -7   0  195.70    5.22
  -8   4   7   99.90    3.00
  -4  -8   7  104.30    3.56
   4  -8  -7  101.40    2.50
   4   8  -7  110.70    3.84
   7  -8  -4  100.10    2.53
   7  -4  -8  103.10    3.02
   7   4  -8  101.80    3.51
   7   8  -4  100.90    3.67
   7   5  -8    3.58    1.41
  -8  -7   7   44.30    2.46
  -7   7   8   35.71    1.49
   7   8  -7   36.59    2.81
  -8   3   6  333.70    7.78
  -6  -8  -3  335.20    7.77
   6  -3  -8  352.50    8.09
  -8  -6   2   21.65    1.85
  -8  -2   6   18.76    1.77
  -6  -8   2   18.06    1.64
  -6   2   8   17.09    1.53
   8  -2  -6   19.74    1.57
  -8   1   6  387.50    8.94
  -6  -8  -1  390.10    9.00
   6  -1  -8  379.40    8.78
   8  -1  -6  370.70    8.62
  -8   0   6  336.70    8.00
   6   0  -8  356.60    8.37
   6   8   0  322.60    7.73
  -6   4   8    2.99    1.01
   5  -6  -8  129.60    3.48
   8  -5  -6  130.50    3.56
  -8   6   6    3.60    0.78
  -6  -6   8    5.99    1.41
   6  -6  -8    6.31    0.90
   8  -6  -6    5.97    0.90
  -5  -8  -2  185.70    4.75
  -5  -2   8  197.30    5.29
   8   2  -5  180.00    4.98
   8   5   2  186.60    4.89
  -8   1   5  445.10   10.05
  -1  -8   5  499.20   11.10
   1   5  -8  495.80   11.22
   1   8  -5  506.60   11.29
   8  -1  -5  454.50   10.27
  -8  -5   0   56.87    2.49
  -5  -8   0   53.16    2.16
  -5  -3   8  475.50   10.83
  -3  -8   5  468.00   10.57
   5  -3  -8  468.90   10.35
   5   3  -8  473.10   10.86
   5   8  -3  475.00   10.81
  -4   8   5  168.70    3.65
   8   4  -5  157.70    4.66
  -8   5   5  697.30   14.78
  -4  -8   1  338.20    7.89
  -4  -1   8  372.30    8.63
   8   1  -4  356.00    8.38
  -8  -4   0  107.00    3.44
  -8   0   4  103.60    3.23
   0   8  -4  118.10    3.36
   8   0  -4  114.60    3.50
   8   4   0  101.50    3.33
  -8  -4   2  137.00    4.24
  -2  -4   8  133.80    4.02
   2   4  -8  156.20    4.46
   4  -2  -8  155.50    4.09
   4   2  -8  137.30    3.97
   8   4  -2  144.30    4.39
   8  -3  -4  120.70    3.43
  -4   8   4 1257.00   25.29
   4   8  -4 1319.00   27.64
  -3  -8   1  103.70    3.12
  -1  -8   3  102.50    2.99
   0  -8  -3  673.90   13.85
   8   0  -3  673.50   14.61
  -8  -2   3 1313.00   27.44
  -8   2   3 1272.00   26.38
  -2  -8   3 1306.00   27.15
  -2   8   3 1336.00   26.88
   8   3  -2 1272.00   26.79
   3   8  -3 4541.00   92.00
   8   0  -2  664.10   14.27
   2  -8  -1  251.90    5.40
   2   8   1  259.00    5.99
   8   1  -2  273.00    6.62
  -1   8   1  222.10    4.94
   1   8   1  210.10    4.92
  -2  -2   8  199.70    5.06
   8  -8 -16   24.43    1.63
   8   8 -16   23.89    2.15
   8  16  -8   33.41    2.52
  16  -8  -8   24.47    1.74
  -7  -7   3 1902.00   39.68
   7   7  -3 1983.00   41.23
   7   7  -2  254.20    6.60
  -7  -4   7  230.80    6.21
  -4  -7   7  226.20    6.11
   4   7  -7  233.20    6.24
   7   4  -7  239.20    6.42
  -5  -7   7   88.39    3.40
   7  -7  -5   79.05    2.33
   7   7  -5   90.55    3.43
   3   6  -7   71.31    2.86
   6   7  -3   76.80    3.04
   7  -3  -6   73.72    2.56
   7   3  -6   71.92    2.88
  -7   2   6  180.50    4.68
  -2  -6   7  181.60    5.09
   2   7  -6  177.20    4.98
   7  -2  -6  202.00    5.07
  -1  -7   6   87.45    2.96
   6   1  -7   83.61    2.95
  -7  -6   4  348.70    8.53
  -7   6   4  387.00    8.40
  -6  -7   4  350.00    8.46
  -4  -7   6  338.70    8.34
  -4   6   7  375.20    8.09
   4  -7  -6  378.70    8.02
   6  -7  -4  357.30    7.62
   6   4  -7  373.50    8.95
  -7  -5   6  257.10    6.86
  -6   5   7  288.90    6.57
  -5  -6   7  274.60    7.11
  -5   6   7  277.00    6.21
   5  -7  -6  288.50    6.27
   6  -5  -7  259.90    6.01
   6   6  -7  157.30    4.74
   5  -2  -7   46.36    2.01
   5   2  -7   51.47    2.34
  -7  -1   5  246.30    6.17
   5   7   1  269.80    6.33
  -7  -5   0  146.20    4.15
   0  -7   5  157.40    4.14
   7   5   0  154.70    4.34
  -7  -5   3   86.14    3.19
  -5  -7   3   85.35    3.11
  -3  -7   5   72.76    2.72
   3   7  -5   85.48    3.12
   5  -3  -7   79.84    2.59
  -7  -5   4 1127.00   24.07
  -7  -4   5 1142.00   24.29
  -5  -7   4 1095.00   23.24
  -5   4   7 1066.00   22.08
   7   4  -5 1024.00   21.84
   7   5  -4 1043.00   22.31
  -7   5   5  577.60   12.29
  -5  -5   7  594.50   13.50
   5  -7  -5  564.70   11.70
   7  -5  -5  619.50   13.14
  -7  -4  -1    2.45    1.16
   0  -7   4  107.30    2.85
   0  -4   7  115.20    3.36
  -7   2   4   85.01    2.69
  -4  -7  -2   95.23    2.79
  -2  -7   4   92.17    2.97
   4  -2  -7   82.45    2.54
   4   7  -2   88.64    2.91
   7  -2  -4   93.75    2.80
  -7  -4   3  439.50   10.18
  -4   3   7  437.80    9.54
   7   4  -3  450.90   10.39
  -7  -4   4   10.90    1.57
   1   7  -3 1842.00   37.80
   3   7  -1 1801.00   36.94
   7   1  -3 1801.00   37.14
  -7  -3   2  208.70    5.46
  -7  -2   3  206.70    5.30
  -3  -7  -2  202.80    4.79
  -2  -7   3  193.50    4.96
   3   7  -2  216.20    5.34
   7   3  -2  194.40    5.11
   7  -3  -3  570.30   12.18
  -2  -7   0 1465.00   30.03
   0   7   2 1437.00   29.14
   2   7   0 1486.00   30.51
  -1   7   2  116.60    2.60
   1  -7  -2  108.60    2.51
   2   2  -7    6.34    1.25
  -1   7   1  586.40   12.13
   1   7  -1  658.10   13.93
   7   1  -1  584.30   12.66
  -6   0  18    0.99    0.96
   0 -18  -6    1.00    0.46
   0 -18   6    0.88    0.91
   0  18  -6    2.65    0.94
   0  18   6    1.58    0.64
   6   0 -18    2.08    1.04
   6  18   0    1.72    0.97
  18   6   0    5.45    1.32
  -6  -2   6  406.10    9.34
   2   6  -6  382.70    8.94
  -6   1   6  402.10    9.03
   6   1  -6  427.50    9.66
  -6  -3   6  477.70   10.96
   6   3  -6  460.90   10.57
  -6   5   6  825.60   17.19
   5  -6  -6  843.50   17.48
   6   2  -5   24.11    1.55
  -1  -6   5  147.70    4.08
  -5  -6   0 1477.00   30.50
   3   6  -5  610.30   13.57
   5   6  -3  665.70   14.61
   4  -5  -6   35.47    1.42
   5  -4  -6   42.28    1.72
  -6  -5   5 1420.00   29.86
  -5   6   5 1515.00   30.77
   6   5  -5 1378.00   28.94
   2   4  -6  369.60    8.34
   6  -2  -4  384.30    8.52
  -6   1   4 1337.00   27.60
   6  -1  -4 1274.00   26.35
   6   4  -1 1308.00   27.37
   0  -6   4   17.29    1.38
   0  -4   6   17.69    1.52
   0   4  -6   15.51    1.58
  -6   4   3  343.70    7.49
  -4   6   3  347.40    7.21
  -3  -4   6  340.10    8.07
   6  -3  -4  327.60    7.33
   4  -6  -4   34.58    1.13
  -3  -6   1    3.57    0.96
  -2  -3   6  442.70    9.89
   2   6  -3  423.80    9.49
  -3   3   6  194.20    4.56
   3   3  -6  209.90    5.38
  -6   2   1   37.97    1.60
   1   6   2   46.48    1.53
   1   6   0  362.30    7.88
   6   1  -1    5.36    1.25
  -5  -2   5  939.70   19.79
  -5   2   5 1007.00   20.90
   3  -5  -5  272.70    5.87
   3   5  -5  286.90    7.04
  -5   5   4 1016.00   20.80
   5  -4  -5  923.50   19.11
  -5   1   4 1432.00   29.43
  -4  -5   1 1350.00   27.86
   4   5  -4 2268.00   46.52
   5  -4  -4 2259.00   45.77
   1   3  -5  396.20    8.87
   5  -1  -3  396.40    8.71
   5   1  -3  444.40    9.83
  -3   0   5   22.22    1.50
   0  -5   3   24.36    1.45
  -5  -2   3  360.70    8.34
  -3  -2   5  369.60    8.43
  -2  -3   5  354.40    8.14
   2   3  -5  353.00    8.07
   3   5  -2  346.90    7.94
   3  -3  -5  153.50    3.72
   5  -3  -3  146.50    3.57
   5   3  -3  146.00    4.13
  -5  -2   0   54.71    2.14
   0   5  -2   61.95    2.03
   5   0  -1  312.50    7.06
  -5  -1   1  448.70    9.80
  -1  -5  -1  468.40    9.88
   5  -1  -1  463.40    9.91
  -2  -1   5  947.70   19.75
   2   1  -5  879.10   18.37
   3  -4  -4 1926.00   38.91
   3   4  -4 1951.00   40.35
   4  -3  -4 2018.00   40.94
   1   4  -3   78.98    2.56
   3  -3  -4  825.40   17.03
   4  -3  -3  866.20   17.84
  -2  -4   1  849.30   17.70
   2   1  -4  877.40   18.31
   2   4  -1  929.00   19.36
   4  -1  -2  847.10   17.62
  -2   2   4  670.10   13.92
   2  -2  -4  630.80   13.14
   2   4  -2  686.60   14.60
   4   0  -4 2889.00   58.69
  -1  -3   3   11.84    1.20
   3   3   1   10.15    1.12
  -1  -3   0 1002.00   20.54
   1   3   0 1068.00   21.85
  -2   1   2 3673.00   73.89
  -2  -1   1  858.10   17.72
  -1   1   2  780.00   15.94
   0   0   0    0.00    0.00
;
_shelx_hkl_checksum   13478

